file 695574 1622712173                                          
version 2
run Default-0-20210603-17:37:05-13144
attr configname Default
attr datetime 20210603-17:37:05
attr experiment Default
attr inifile omnetpp.ini
attr iterationvars ""
attr iterationvarsf ""
attr measurement ""
attr network TestNetwork
attr processid 13144
attr repetition 0
attr replication #0
attr resultdir results
attr runnumber 0
attr seedset 13144
param *.playgroundSizeX 2500m
param *.playgroundSizeY 2500m
param *.playgroundSizeZ 50m
param *.annotations.draw true
param *.obstacles.debug false
param *.manager.updateInterval 1s
param *.manager.host "\"localhost\""
param *.manager.port 9999
param *.manager.autoShutdown true
param *.manager.launchConfig "xmldoc(\"Testing2.launchd.xml\")"
param *.rsu[0].mobility.x 100
param *.rsu[0].mobility.y 100
param *.rsu[0].mobility.z 3
param *.rsu[1].mobility.x 350
param *.rsu[1].mobility.y 100
param *.rsu[1].mobility.z 3
param *.rsu[2].mobility.x 600
param *.rsu[2].mobility.y 100
param *.rsu[2].mobility.z 3
param *.rsu[3].mobility.x 850
param *.rsu[3].mobility.y 100
param *.rsu[3].mobility.z 3
param *.rsu[4].mobility.x 1100
param *.rsu[4].mobility.y 100
param *.rsu[4].mobility.z 3
param *.rsu[*].applType "\"RSUClusterApp\""
param *.rsu[*].appl.headerLength "80 bit"
param *.rsu[*].appl.sendBeacons true
param *.rsu[*].appl.dataOnSch false
param *.rsu[*].appl.beaconInterval 2s
param *.rsu[*].appl.beaconUserPriority 7
param *.rsu[*].appl.dataUserPriority 5
param *.rsu[*].nic.phy80211p.antennaOffsetZ "0 m"
param **.switch*.relayUnit.typename "\"MacRelayUnit\""
param *.connectionManager.sendDirect true
param *.connectionManager.maxInterfDist 2600m
param *.connectionManager.drawMaxIntfDist false
param *.**.nic.mac1609_4.useServiceChannel false
param *.**.nic.mac1609_4.txPower 80mW
param *.**.nic.mac1609_4.bitrate 12Mbps
param *.**.nic.phy80211p.minPowerLevel -110dBm
param *.**.nic.phy80211p.allowTxDuringRx true
param *.**.nic.phy80211p.useNoiseFloor true
param *.**.nic.phy80211p.noiseFloor -98dBm
param *.**.nic.phy80211p.decider "xmldoc(\"config.xml\")"
param *.**.nic.phy80211p.analogueModels "xmldoc(\"config.xml\")"
param *.**.nic.phy80211p.usePropagationDelay true
param *.**.nic.phy80211p.antenna "xmldoc(\"antenna.xml\", \"/root/Antenna[@id='monopole']\")"
param *.node[*].nic.phy80211p.antennaOffsetY "0 m"
param *.node[*].nic.phy80211p.antennaOffsetZ "1.895 m"
param *.node[*].applType "\"VehicleApp\""
param *.node[*].appl.headerLength "80 bit"
param *.node[*].appl.sendBeacons false
param *.node[*].appl.dataOnSch false
param *.node[*].appl.beaconInterval 1s
param *.node[*].veinsmobility.x 0
param *.node[*].veinsmobility.y 0
param *.node[*].veinsmobility.z 0
param *.node[*].veinsmobility.setHostSpeed false
param *.node[*0].veinsmobility.accidentCount 0
param *.node[*0].veinsmobility.accidentStart 73s
param *.node[*0].veinsmobility.accidentDuration 50s

vector 0 TestNetwork.rsu[0].eth.encap encapPk:vector(packetBytes) ETV
attr interpolationmode none
attr source encapPk
attr title "packets encapsulated, vector(packetBytes)"
vector 1 TestNetwork.rsu[1].eth.encap encapPk:vector(packetBytes) ETV
attr interpolationmode none
attr source encapPk
attr title "packets encapsulated, vector(packetBytes)"
vector 2 TestNetwork.rsu[2].eth.encap encapPk:vector(packetBytes) ETV
attr interpolationmode none
attr source encapPk
attr title "packets encapsulated, vector(packetBytes)"
vector 3 TestNetwork.rsu[3].eth.encap encapPk:vector(packetBytes) ETV
attr interpolationmode none
attr source encapPk
attr title "packets encapsulated, vector(packetBytes)"
vector 4 TestNetwork.rsu[4].eth.encap encapPk:vector(packetBytes) ETV
attr interpolationmode none
attr source encapPk
attr title "packets encapsulated, vector(packetBytes)"
vector 5 TestNetwork.rsu[0].eth.mac packetReceivedFromUpper:vector(packetBytes) ETV
attr interpolationmode none
attr source packetReceivedFromUpper
attr title "packet bytes from higher layer, vector(packetBytes)"
vector 6 TestNetwork.rsu[0].eth.mac.queue packetPushed:vector(packetBytes) ETV
attr interpolationmode none
attr title "packet pushed, vector(packetBytes)"
vector 7 TestNetwork.rsu[0].eth.mac.queue queueLength:vector ETV
attr interpolationmode sample-hold
attr source "count(packetPushed) - count(packetPopped) - count(packetRemoved) - count(packetDropped)"
attr title "queue length, vector"
vector 8 TestNetwork.rsu[0].eth.mac.queue packetPopped:vector(packetBytes) ETV
attr interpolationmode none
attr title "packet popped, vector(packetBytes)"
vector 9 TestNetwork.rsu[0].eth.mac.queue queueingTime:vector ETV
attr interpolationmode none
attr source queueingTime(packetPopped)
attr title "queueing times, vector"
attr unit s
vector 10 TestNetwork.rsu[1].eth.mac packetReceivedFromUpper:vector(packetBytes) ETV
attr interpolationmode none
attr source packetReceivedFromUpper
attr title "packet bytes from higher layer, vector(packetBytes)"
vector 11 TestNetwork.rsu[1].eth.mac.queue packetPushed:vector(packetBytes) ETV
attr interpolationmode none
attr title "packet pushed, vector(packetBytes)"
vector 12 TestNetwork.rsu[1].eth.mac.queue queueLength:vector ETV
attr interpolationmode sample-hold
attr source "count(packetPushed) - count(packetPopped) - count(packetRemoved) - count(packetDropped)"
attr title "queue length, vector"
vector 13 TestNetwork.rsu[1].eth.mac.queue packetPopped:vector(packetBytes) ETV
attr interpolationmode none
attr title "packet popped, vector(packetBytes)"
vector 14 TestNetwork.rsu[1].eth.mac.queue queueingTime:vector ETV
attr interpolationmode none
attr source queueingTime(packetPopped)
attr title "queueing times, vector"
attr unit s
vector 15 TestNetwork.rsu[2].eth.mac packetReceivedFromUpper:vector(packetBytes) ETV
attr interpolationmode none
attr source packetReceivedFromUpper
attr title "packet bytes from higher layer, vector(packetBytes)"
vector 16 TestNetwork.rsu[2].eth.mac.queue packetPushed:vector(packetBytes) ETV
attr interpolationmode none
attr title "packet pushed, vector(packetBytes)"
vector 17 TestNetwork.rsu[2].eth.mac.queue queueLength:vector ETV
attr interpolationmode sample-hold
attr source "count(packetPushed) - count(packetPopped) - count(packetRemoved) - count(packetDropped)"
attr title "queue length, vector"
vector 18 TestNetwork.rsu[2].eth.mac.queue packetPopped:vector(packetBytes) ETV
attr interpolationmode none
attr title "packet popped, vector(packetBytes)"
vector 19 TestNetwork.rsu[2].eth.mac.queue queueingTime:vector ETV
attr interpolationmode none
attr source queueingTime(packetPopped)
attr title "queueing times, vector"
attr unit s
vector 20 TestNetwork.rsu[3].eth.mac packetReceivedFromUpper:vector(packetBytes) ETV
attr interpolationmode none
attr source packetReceivedFromUpper
attr title "packet bytes from higher layer, vector(packetBytes)"
vector 21 TestNetwork.rsu[3].eth.mac.queue packetPushed:vector(packetBytes) ETV
attr interpolationmode none
attr title "packet pushed, vector(packetBytes)"
vector 22 TestNetwork.rsu[3].eth.mac.queue queueLength:vector ETV
attr interpolationmode sample-hold
attr source "count(packetPushed) - count(packetPopped) - count(packetRemoved) - count(packetDropped)"
attr title "queue length, vector"
vector 23 TestNetwork.rsu[3].eth.mac.queue packetPopped:vector(packetBytes) ETV
attr interpolationmode none
attr title "packet popped, vector(packetBytes)"
vector 24 TestNetwork.rsu[3].eth.mac.queue queueingTime:vector ETV
attr interpolationmode none
attr source queueingTime(packetPopped)
attr title "queueing times, vector"
attr unit s
vector 25 TestNetwork.rsu[4].eth.mac packetReceivedFromUpper:vector(packetBytes) ETV
attr interpolationmode none
attr source packetReceivedFromUpper
attr title "packet bytes from higher layer, vector(packetBytes)"
vector 26 TestNetwork.rsu[4].eth.mac.queue packetPushed:vector(packetBytes) ETV
attr interpolationmode none
attr title "packet pushed, vector(packetBytes)"
vector 27 TestNetwork.rsu[4].eth.mac.queue queueLength:vector ETV
attr interpolationmode sample-hold
attr source "count(packetPushed) - count(packetPopped) - count(packetRemoved) - count(packetDropped)"
attr title "queue length, vector"
vector 28 TestNetwork.rsu[4].eth.mac.queue packetPopped:vector(packetBytes) ETV
attr interpolationmode none
attr title "packet popped, vector(packetBytes)"
vector 29 TestNetwork.rsu[4].eth.mac.queue queueingTime:vector ETV
attr interpolationmode none
attr source queueingTime(packetPopped)
attr title "queueing times, vector"
attr unit s
vector 30 TestNetwork.rsu[0].eth.mac txPk:vector(packetBytes) ETV
attr interpolationmode none
attr source packetSentToLower
attr title "packets transmitted, vector(packetBytes)"
vector 31 TestNetwork.rsu[1].eth.mac txPk:vector(packetBytes) ETV
attr interpolationmode none
attr source packetSentToLower
attr title "packets transmitted, vector(packetBytes)"
vector 32 TestNetwork.rsu[2].eth.mac txPk:vector(packetBytes) ETV
attr interpolationmode none
attr source packetSentToLower
attr title "packets transmitted, vector(packetBytes)"
vector 33 TestNetwork.rsu[3].eth.mac txPk:vector(packetBytes) ETV
attr interpolationmode none
attr source packetSentToLower
attr title "packets transmitted, vector(packetBytes)"
vector 34 TestNetwork.rsu[4].eth.mac txPk:vector(packetBytes) ETV
attr interpolationmode none
attr source packetSentToLower
attr title "packets transmitted, vector(packetBytes)"
vector 35 TestNetwork.switch1.eth[0].mac rxPkOk:vector(packetBytes) ETV
attr interpolationmode none
attr source rxPkOk
attr title "packets received OK, vector(packetBytes)"
vector 36 TestNetwork.switch1.eth[0].mac passedUpPk:vector(packetBytes) ETV
attr interpolationmode none
attr source packetSentToUpper
attr title "packets passed to higher layer, vector(packetBytes)"
vector 37 TestNetwork.switch4.eth[1].mac rxPkOk:vector(packetBytes) ETV
attr interpolationmode none
attr source rxPkOk
attr title "packets received OK, vector(packetBytes)"
vector 38 TestNetwork.switch4.eth[1].mac passedUpPk:vector(packetBytes) ETV
attr interpolationmode none
attr source packetSentToUpper
attr title "packets passed to higher layer, vector(packetBytes)"
vector 39 TestNetwork.switch5.eth[1].mac rxPkOk:vector(packetBytes) ETV
attr interpolationmode none
attr source rxPkOk
attr title "packets received OK, vector(packetBytes)"
vector 40 TestNetwork.switch5.eth[1].mac passedUpPk:vector(packetBytes) ETV
attr interpolationmode none
attr source packetSentToUpper
attr title "packets passed to higher layer, vector(packetBytes)"
vector 41 TestNetwork.switch7.eth[1].mac rxPkOk:vector(packetBytes) ETV
attr interpolationmode none
attr source rxPkOk
attr title "packets received OK, vector(packetBytes)"
vector 42 TestNetwork.switch7.eth[1].mac passedUpPk:vector(packetBytes) ETV
attr interpolationmode none
attr source packetSentToUpper
attr title "packets passed to higher layer, vector(packetBytes)"
vector 43 TestNetwork.switch7.eth[2].mac rxPkOk:vector(packetBytes) ETV
attr interpolationmode none
attr source rxPkOk
attr title "packets received OK, vector(packetBytes)"
vector 44 TestNetwork.switch7.eth[2].mac passedUpPk:vector(packetBytes) ETV
attr interpolationmode none
attr source packetSentToUpper
attr title "packets passed to higher layer, vector(packetBytes)"
vector 45 TestNetwork.switch5.eth[0].mac packetReceivedFromUpper:vector(packetBytes) ETV
attr interpolationmode none
attr source packetReceivedFromUpper
attr title "packet bytes from higher layer, vector(packetBytes)"
vector 46 TestNetwork.switch5.eth[0].mac.queue packetPushed:vector(packetBytes) ETV
attr interpolationmode none
attr title "packet pushed, vector(packetBytes)"
vector 47 TestNetwork.switch5.eth[0].mac.queue queueLength:vector ETV
attr interpolationmode sample-hold
attr source "count(packetPushed) - count(packetPopped) - count(packetRemoved) - count(packetDropped)"
attr title "queue length, vector"
vector 48 TestNetwork.switch5.eth[0].mac.queue packetPopped:vector(packetBytes) ETV
attr interpolationmode none
attr title "packet popped, vector(packetBytes)"
vector 49 TestNetwork.switch5.eth[0].mac.queue queueingTime:vector ETV
attr interpolationmode none
attr source queueingTime(packetPopped)
attr title "queueing times, vector"
attr unit s
vector 50 TestNetwork.switch5.eth[2].mac packetReceivedFromUpper:vector(packetBytes) ETV
attr interpolationmode none
attr source packetReceivedFromUpper
attr title "packet bytes from higher layer, vector(packetBytes)"
vector 51 TestNetwork.switch5.eth[2].mac.queue packetPushed:vector(packetBytes) ETV
attr interpolationmode none
attr title "packet pushed, vector(packetBytes)"
vector 52 TestNetwork.switch5.eth[2].mac.queue queueLength:vector ETV
attr interpolationmode sample-hold
attr source "count(packetPushed) - count(packetPopped) - count(packetRemoved) - count(packetDropped)"
attr title "queue length, vector"
vector 53 TestNetwork.switch5.eth[2].mac.queue packetPopped:vector(packetBytes) ETV
attr interpolationmode none
attr title "packet popped, vector(packetBytes)"
vector 54 TestNetwork.switch5.eth[2].mac.queue queueingTime:vector ETV
attr interpolationmode none
attr source queueingTime(packetPopped)
attr title "queueing times, vector"
attr unit s
vector 55 TestNetwork.switch5.eth[0].mac txPk:vector(packetBytes) ETV
attr interpolationmode none
attr source packetSentToLower
attr title "packets transmitted, vector(packetBytes)"
vector 56 TestNetwork.switch5.eth[2].mac txPk:vector(packetBytes) ETV
attr interpolationmode none
attr source packetSentToLower
attr title "packets transmitted, vector(packetBytes)"
vector 57 TestNetwork.switch4.eth[2].mac rxPkOk:vector(packetBytes) ETV
attr interpolationmode none
attr source rxPkOk
attr title "packets received OK, vector(packetBytes)"
vector 58 TestNetwork.switch4.eth[2].mac passedUpPk:vector(packetBytes) ETV
attr interpolationmode none
attr source packetSentToUpper
attr title "packets passed to higher layer, vector(packetBytes)"
vector 59 TestNetwork.switch6.eth[0].mac rxPkOk:vector(packetBytes) ETV
attr interpolationmode none
attr source rxPkOk
attr title "packets received OK, vector(packetBytes)"
vector 60 TestNetwork.switch6.eth[0].mac passedUpPk:vector(packetBytes) ETV
attr interpolationmode none
attr source packetSentToUpper
attr title "packets passed to higher layer, vector(packetBytes)"
vector 61 TestNetwork.switch1.eth[1].mac packetReceivedFromUpper:vector(packetBytes) ETV
attr interpolationmode none
attr source packetReceivedFromUpper
attr title "packet bytes from higher layer, vector(packetBytes)"
vector 62 TestNetwork.switch1.eth[1].mac.queue packetPushed:vector(packetBytes) ETV
attr interpolationmode none
attr title "packet pushed, vector(packetBytes)"
vector 63 TestNetwork.switch1.eth[1].mac.queue queueLength:vector ETV
attr interpolationmode sample-hold
attr source "count(packetPushed) - count(packetPopped) - count(packetRemoved) - count(packetDropped)"
attr title "queue length, vector"
vector 64 TestNetwork.switch1.eth[1].mac.queue packetPopped:vector(packetBytes) ETV
attr interpolationmode none
attr title "packet popped, vector(packetBytes)"
vector 65 TestNetwork.switch1.eth[1].mac.queue queueingTime:vector ETV
attr interpolationmode none
attr source queueingTime(packetPopped)
attr title "queueing times, vector"
attr unit s
vector 66 TestNetwork.switch1.eth[2].mac packetReceivedFromUpper:vector(packetBytes) ETV
attr interpolationmode none
attr source packetReceivedFromUpper
attr title "packet bytes from higher layer, vector(packetBytes)"
vector 67 TestNetwork.switch1.eth[2].mac.queue packetPushed:vector(packetBytes) ETV
attr interpolationmode none
attr title "packet pushed, vector(packetBytes)"
vector 68 TestNetwork.switch1.eth[2].mac.queue queueLength:vector ETV
attr interpolationmode sample-hold
attr source "count(packetPushed) - count(packetPopped) - count(packetRemoved) - count(packetDropped)"
attr title "queue length, vector"
vector 69 TestNetwork.switch1.eth[2].mac.queue packetPopped:vector(packetBytes) ETV
attr interpolationmode none
attr title "packet popped, vector(packetBytes)"
vector 70 TestNetwork.switch1.eth[2].mac.queue queueingTime:vector ETV
attr interpolationmode none
attr source queueingTime(packetPopped)
attr title "queueing times, vector"
attr unit s
vector 71 TestNetwork.switch1.eth[1].mac txPk:vector(packetBytes) ETV
attr interpolationmode none
attr source packetSentToLower
attr title "packets transmitted, vector(packetBytes)"
vector 72 TestNetwork.switch1.eth[2].mac txPk:vector(packetBytes) ETV
attr interpolationmode none
attr source packetSentToLower
attr title "packets transmitted, vector(packetBytes)"
vector 73 TestNetwork.switch2.eth[0].mac rxPkOk:vector(packetBytes) ETV
attr interpolationmode none
attr source rxPkOk
attr title "packets received OK, vector(packetBytes)"
vector 74 TestNetwork.switch2.eth[0].mac passedUpPk:vector(packetBytes) ETV
attr interpolationmode none
attr source packetSentToUpper
attr title "packets passed to higher layer, vector(packetBytes)"
vector 75 TestNetwork.switch3.eth[0].mac rxPkOk:vector(packetBytes) ETV
attr interpolationmode none
attr source rxPkOk
attr title "packets received OK, vector(packetBytes)"
vector 76 TestNetwork.switch3.eth[0].mac passedUpPk:vector(packetBytes) ETV
attr interpolationmode none
attr source packetSentToUpper
attr title "packets passed to higher layer, vector(packetBytes)"
vector 77 TestNetwork.switch4.eth[0].mac packetReceivedFromUpper:vector(packetBytes) ETV
attr interpolationmode none
attr source packetReceivedFromUpper
attr title "packet bytes from higher layer, vector(packetBytes)"
vector 78 TestNetwork.switch4.eth[0].mac.queue packetPushed:vector(packetBytes) ETV
attr interpolationmode none
attr title "packet pushed, vector(packetBytes)"
vector 79 TestNetwork.switch4.eth[0].mac.queue queueLength:vector ETV
attr interpolationmode sample-hold
attr source "count(packetPushed) - count(packetPopped) - count(packetRemoved) - count(packetDropped)"
attr title "queue length, vector"
vector 80 TestNetwork.switch4.eth[0].mac.queue packetPopped:vector(packetBytes) ETV
attr interpolationmode none
attr title "packet popped, vector(packetBytes)"
vector 81 TestNetwork.switch4.eth[0].mac.queue queueingTime:vector ETV
attr interpolationmode none
attr source queueingTime(packetPopped)
attr title "queueing times, vector"
attr unit s
vector 82 TestNetwork.switch4.eth[2].mac packetReceivedFromUpper:vector(packetBytes) ETV
attr interpolationmode none
attr source packetReceivedFromUpper
attr title "packet bytes from higher layer, vector(packetBytes)"
vector 83 TestNetwork.switch4.eth[2].mac.queue packetPushed:vector(packetBytes) ETV
attr interpolationmode none
attr title "packet pushed, vector(packetBytes)"
vector 84 TestNetwork.switch4.eth[2].mac.queue queueLength:vector ETV
attr interpolationmode sample-hold
attr source "count(packetPushed) - count(packetPopped) - count(packetRemoved) - count(packetDropped)"
attr title "queue length, vector"
vector 85 TestNetwork.switch4.eth[2].mac.queue packetPopped:vector(packetBytes) ETV
attr interpolationmode none
attr title "packet popped, vector(packetBytes)"
vector 86 TestNetwork.switch4.eth[2].mac.queue queueingTime:vector ETV
attr interpolationmode none
attr source queueingTime(packetPopped)
attr title "queueing times, vector"
attr unit s
vector 87 TestNetwork.switch4.eth[0].mac txPk:vector(packetBytes) ETV
attr interpolationmode none
attr source packetSentToLower
attr title "packets transmitted, vector(packetBytes)"
vector 88 TestNetwork.switch4.eth[2].mac txPk:vector(packetBytes) ETV
attr interpolationmode none
attr source packetSentToLower
attr title "packets transmitted, vector(packetBytes)"
vector 89 TestNetwork.switch3.eth[1].mac rxPkOk:vector(packetBytes) ETV
attr interpolationmode none
attr source rxPkOk
attr title "packets received OK, vector(packetBytes)"
vector 90 TestNetwork.switch3.eth[1].mac passedUpPk:vector(packetBytes) ETV
attr interpolationmode none
attr source packetSentToUpper
attr title "packets passed to higher layer, vector(packetBytes)"
vector 91 TestNetwork.switch5.eth[0].mac rxPkOk:vector(packetBytes) ETV
attr interpolationmode none
attr source rxPkOk
attr title "packets received OK, vector(packetBytes)"
vector 92 TestNetwork.switch5.eth[0].mac passedUpPk:vector(packetBytes) ETV
attr interpolationmode none
attr source packetSentToUpper
attr title "packets passed to higher layer, vector(packetBytes)"
vector 93 TestNetwork.switch7.eth[0].mac packetReceivedFromUpper:vector(packetBytes) ETV
attr interpolationmode none
attr source packetReceivedFromUpper
attr title "packet bytes from higher layer, vector(packetBytes)"
vector 94 TestNetwork.switch7.eth[0].mac.queue packetPushed:vector(packetBytes) ETV
attr interpolationmode none
attr title "packet pushed, vector(packetBytes)"
vector 95 TestNetwork.switch7.eth[0].mac.queue queueLength:vector ETV
attr interpolationmode sample-hold
attr source "count(packetPushed) - count(packetPopped) - count(packetRemoved) - count(packetDropped)"
attr title "queue length, vector"
vector 96 TestNetwork.switch7.eth[0].mac.queue packetPopped:vector(packetBytes) ETV
attr interpolationmode none
attr title "packet popped, vector(packetBytes)"
vector 97 TestNetwork.switch7.eth[0].mac.queue queueingTime:vector ETV
attr interpolationmode none
attr source queueingTime(packetPopped)
attr title "queueing times, vector"
attr unit s
vector 98 TestNetwork.switch7.eth[1].mac packetReceivedFromUpper:vector(packetBytes) ETV
attr interpolationmode none
attr source packetReceivedFromUpper
attr title "packet bytes from higher layer, vector(packetBytes)"
vector 99 TestNetwork.switch7.eth[1].mac.queue packetPushed:vector(packetBytes) ETV
attr interpolationmode none
attr title "packet pushed, vector(packetBytes)"
vector 100 TestNetwork.switch7.eth[1].mac.queue queueLength:vector ETV
attr interpolationmode sample-hold
attr source "count(packetPushed) - count(packetPopped) - count(packetRemoved) - count(packetDropped)"
attr title "queue length, vector"
vector 101 TestNetwork.switch7.eth[1].mac.queue packetPopped:vector(packetBytes) ETV
attr interpolationmode none
attr title "packet popped, vector(packetBytes)"
vector 102 TestNetwork.switch7.eth[1].mac.queue queueingTime:vector ETV
attr interpolationmode none
attr source queueingTime(packetPopped)
attr title "queueing times, vector"
attr unit s
vector 103 TestNetwork.switch7.eth[3].mac packetReceivedFromUpper:vector(packetBytes) ETV
attr interpolationmode none
attr source packetReceivedFromUpper
attr title "packet bytes from higher layer, vector(packetBytes)"
vector 104 TestNetwork.switch7.eth[3].mac.queue packetPushed:vector(packetBytes) ETV
attr interpolationmode none
attr title "packet pushed, vector(packetBytes)"
vector 105 TestNetwork.switch7.eth[3].mac.queue queueLength:vector ETV
attr interpolationmode sample-hold
attr source "count(packetPushed) - count(packetPopped) - count(packetRemoved) - count(packetDropped)"
attr title "queue length, vector"
vector 106 TestNetwork.switch7.eth[3].mac.queue packetPopped:vector(packetBytes) ETV
attr interpolationmode none
attr title "packet popped, vector(packetBytes)"
vector 107 TestNetwork.switch7.eth[3].mac.queue queueingTime:vector ETV
attr interpolationmode none
attr source queueingTime(packetPopped)
attr title "queueing times, vector"
attr unit s
vector 108 TestNetwork.switch7.eth[0].mac txPk:vector(packetBytes) ETV
attr interpolationmode none
attr source packetSentToLower
attr title "packets transmitted, vector(packetBytes)"
vector 109 TestNetwork.switch7.eth[1].mac txPk:vector(packetBytes) ETV
attr interpolationmode none
attr source packetSentToLower
attr title "packets transmitted, vector(packetBytes)"
vector 110 TestNetwork.switch7.eth[3].mac txPk:vector(packetBytes) ETV
attr interpolationmode none
attr source packetSentToLower
attr title "packets transmitted, vector(packetBytes)"
vector 111 TestNetwork.switch6.eth[2].mac rxPkOk:vector(packetBytes) ETV
attr interpolationmode none
attr source rxPkOk
attr title "packets received OK, vector(packetBytes)"
vector 112 TestNetwork.switch6.eth[2].mac passedUpPk:vector(packetBytes) ETV
attr interpolationmode none
attr source packetSentToUpper
attr title "packets passed to higher layer, vector(packetBytes)"
vector 113 TestNetwork.rsu[3].eth.mac rxPkOk:vector(packetBytes) ETV
attr interpolationmode none
attr source rxPkOk
attr title "packets received OK, vector(packetBytes)"
vector 114 TestNetwork.rsu[3].eth.mac passedUpPk:vector(packetBytes) ETV
attr interpolationmode none
attr source packetSentToUpper
attr title "packets passed to higher layer, vector(packetBytes)"
vector 115 TestNetwork.ES4.eth.mac rxPkOk:vector(packetBytes) ETV
attr interpolationmode none
attr source rxPkOk
attr title "packets received OK, vector(packetBytes)"
vector 116 TestNetwork.ES4.eth.mac passedUpPk:vector(packetBytes) ETV
attr interpolationmode none
attr source packetSentToUpper
attr title "packets passed to higher layer, vector(packetBytes)"
vector 117 TestNetwork.ES4.srv packetReceived:vector(packetBytes) ETV
attr interpolationmode none
attr source packetReceived
attr title "packets received, vector(packetBytes)"
vector 118 TestNetwork.ES4.srv packetSent:vector(packetBytes) ETV
attr interpolationmode none
attr source packetSent
attr title "packets sent, vector(packetBytes)"
vector 119 TestNetwork.ES4.llc encapPk:vector(packetBytes) ETV
attr interpolationmode none
attr source encapPk
attr title "packets encapsulated, vector(packetBytes)"
vector 120 TestNetwork.ES4.eth.mac packetReceivedFromUpper:vector(packetBytes) ETV
attr interpolationmode none
attr source packetReceivedFromUpper
attr title "packet bytes from higher layer, vector(packetBytes)"
vector 121 TestNetwork.ES4.eth.mac.queue packetPushed:vector(packetBytes) ETV
attr interpolationmode none
attr title "packet pushed, vector(packetBytes)"
vector 122 TestNetwork.ES4.eth.mac.queue queueLength:vector ETV
attr interpolationmode sample-hold
attr source "count(packetPushed) - count(packetPopped) - count(packetRemoved) - count(packetDropped)"
attr title "queue length, vector"
vector 123 TestNetwork.ES4.eth.mac.queue packetPopped:vector(packetBytes) ETV
attr interpolationmode none
attr title "packet popped, vector(packetBytes)"
vector 124 TestNetwork.ES4.eth.mac.queue queueingTime:vector ETV
attr interpolationmode none
attr source queueingTime(packetPopped)
attr title "queueing times, vector"
attr unit s
vector 125 TestNetwork.switch7.eth[2].mac packetReceivedFromUpper:vector(packetBytes) ETV
attr interpolationmode none
attr source packetReceivedFromUpper
attr title "packet bytes from higher layer, vector(packetBytes)"
vector 126 TestNetwork.switch7.eth[2].mac.queue packetPushed:vector(packetBytes) ETV
attr interpolationmode none
attr title "packet pushed, vector(packetBytes)"
vector 127 TestNetwork.switch7.eth[2].mac.queue queueLength:vector ETV
attr interpolationmode sample-hold
attr source "count(packetPushed) - count(packetPopped) - count(packetRemoved) - count(packetDropped)"
attr title "queue length, vector"
vector 128 TestNetwork.switch7.eth[2].mac.queue packetPopped:vector(packetBytes) ETV
attr interpolationmode none
attr title "packet popped, vector(packetBytes)"
vector 129 TestNetwork.switch7.eth[2].mac.queue queueingTime:vector ETV
attr interpolationmode none
attr source queueingTime(packetPopped)
attr title "queueing times, vector"
attr unit s
vector 130 TestNetwork.ES4.eth.mac txPk:vector(packetBytes) ETV
attr interpolationmode none
attr source packetSentToLower
attr title "packets transmitted, vector(packetBytes)"
vector 131 TestNetwork.switch7.eth[3].mac rxPkOk:vector(packetBytes) ETV
attr interpolationmode none
attr source rxPkOk
attr title "packets received OK, vector(packetBytes)"
vector 132 TestNetwork.switch7.eth[3].mac passedUpPk:vector(packetBytes) ETV
attr interpolationmode none
attr source packetSentToUpper
attr title "packets passed to higher layer, vector(packetBytes)"
vector 133 TestNetwork.switch7.eth[2].mac txPk:vector(packetBytes) ETV
attr interpolationmode none
attr source packetSentToLower
attr title "packets transmitted, vector(packetBytes)"
vector 134 TestNetwork.rsu[4].eth.mac rxPkOk:vector(packetBytes) ETV
attr interpolationmode none
attr source rxPkOk
attr title "packets received OK, vector(packetBytes)"
vector 135 TestNetwork.rsu[4].eth.mac passedUpPk:vector(packetBytes) ETV
attr interpolationmode none
attr source packetSentToUpper
attr title "packets passed to higher layer, vector(packetBytes)"
0	28961 34 7 75 0 0.267123375889 2 64 64 128 8192
1	28995 34 8 98 0 0.298085809175 2 64 64 128 8192
2	29029 34 9 52 0 0.262764940488 2 64 64 128 8192
3	29063 36 10 146 0 0.369153696207 2 21 64 85 4537
4	29099 36 11 121 0 0.369138616207 2 64 64 128 8192
5	29135 35 16 76 0 0.267123375889 2 85 85 170 14450
6	29170 35 16 76 0 0.267123375889 2 85 85 170 14450
7	29205 66 16 76 0 0.267123375889 4 0 1 2 2
8	29271 35 16 76 0 0.267123375889 2 85 85 170 14450
9	29306 33 16 76 0 0.267123375889 2 0 0 0 0
10	29339 37 17 99 0 0.298085809175 2 85 85 170 14450
11	29376 37 17 99 0 0.298085809175 2 85 85 170 14450
12	29413 70 17 99 0 0.298085809175 4 0 1 2 2
13	29483 37 17 99 0 0.298085809175 2 85 85 170 14450
14	29520 35 17 99 0 0.298085809175 2 0 0 0 0
15	29555 37 18 53 0 0.262764940488 2 85 85 170 14450
16	29592 37 18 53 0 0.262764940488 2 85 85 170 14450
17	29629 70 18 53 0 0.262764940488 4 0 1 2 2
18	29699 37 18 53 0 0.262764940488 2 85 85 170 14450
19	29736 35 18 53 0 0.262764940488 2 0 0 0 0
20	29771 38 19 148 0 0.369153696207 2 42 85 127 8989
21	29809 38 19 148 0 0.369153696207 2 64 85 149 11321
22	29847 72 19 148 0 0.369153696207 4 0 1 2 2
23	29919 38 19 148 0 0.369153696207 2 64 85 149 11321
24	29957 36 19 148 0 0.369153696207 2 0 0 0 0
25	29993 38 20 122 0 0.369138616207 2 85 85 170 14450
26	30031 38 20 122 0 0.369138616207 2 85 85 170 14450
27	30069 72 20 122 0 0.369138616207 4 0 1 2 2
28	30141 38 20 122 0 0.369138616207 2 85 85 170 14450
29	30179 36 20 122 0 0.369138616207 2 0 0 0 0
30	30215 46 26 78 0.00000744 0.267130815889 2 85 85 170 14450
31	30261 47 27 101 0.00000744 0.298093249175 2 85 85 170 14450
32	30308 46 28 55 0.00000744 0.262772380488 2 85 85 170 14450
33	30354 47 29 158 0.00000744 0.369160416207 2 64 85 149 11321
34	30401 47 30 124 0.00000744 0.369146056207 2 85 85 170 14450
35	30448 46 31 79 0.00000754 0.267130915889 2 85 85 170 14450
36	30494 46 31 79 0.00000754 0.267130915889 2 85 85 170 14450
37	30540 47 32 102 0.00000754 0.298093349175 2 85 85 170 14450
38	30587 47 32 102 0.00000754 0.298093349175 2 85 85 170 14450
39	30634 46 33 56 0.00000754 0.262772480488 2 85 85 170 14450
40	30680 46 33 56 0.00000754 0.262772480488 2 85 85 170 14450
41	30726 47 34 159 0.00000754 0.369160516207 2 64 85 149 11321
42	30773 47 34 159 0.00000754 0.369160516207 2 64 85 149 11321
43	30820 47 35 125 0.00000754 0.369146156207 2 85 85 170 14450
44	30867 47 35 125 0.00000754 0.369146156207 2 85 85 170 14450
45	30914 25 58 58 0.262772480488 0.262772480488 1 85 85 85 7225
46	30939 25 58 58 0.262772480488 0.262772480488 1 85 85 85 7225
47	30964 48 58 58 0.262772480488 0.262772480488 2 0 1 1 1
48	31012 25 58 58 0.262772480488 0.262772480488 1 85 85 85 7225
49	31037 24 58 58 0.262772480488 0.262772480488 1 0 0 0 0
50	31061 25 59 59 0.262772480488 0.262772480488 1 85 85 85 7225
51	31086 25 59 59 0.262772480488 0.262772480488 1 85 85 85 7225
52	31111 48 59 59 0.262772480488 0.262772480488 2 0 1 1 1
53	31159 25 59 59 0.262772480488 0.262772480488 1 85 85 85 7225
54	31184 24 59 59 0.262772480488 0.262772480488 1 0 0 0 0
55	31208 25 64 64 0.262779920488 0.262779920488 1 85 85 85 7225
56	31233 25 65 65 0.262779920488 0.262779920488 1 85 85 85 7225
57	31258 25 66 66 0.262780020488 0.262780020488 1 85 85 85 7225
58	31283 25 66 66 0.262780020488 0.262780020488 1 85 85 85 7225
59	31308 25 67 67 0.262780020488 0.262780020488 1 85 85 85 7225
60	31333 25 67 67 0.262780020488 0.262780020488 1 85 85 85 7225
61	31358 25 81 81 0.267130915889 0.267130915889 1 85 85 85 7225
62	31383 25 81 81 0.267130915889 0.267130915889 1 85 85 85 7225
63	31408 48 81 81 0.267130915889 0.267130915889 2 0 1 1 1
64	31456 25 81 81 0.267130915889 0.267130915889 1 85 85 85 7225
65	31481 24 81 81 0.267130915889 0.267130915889 1 0 0 0 0
66	31505 25 82 82 0.267130915889 0.267130915889 1 85 85 85 7225
67	31530 25 82 82 0.267130915889 0.267130915889 1 85 85 85 7225
68	31555 48 82 82 0.267130915889 0.267130915889 2 0 1 1 1
69	31603 25 82 82 0.267130915889 0.267130915889 1 85 85 85 7225
70	31628 24 82 82 0.267130915889 0.267130915889 1 0 0 0 0
71	31652 25 87 87 0.267138355889 0.267138355889 1 85 85 85 7225
72	31677 25 88 88 0.267138355889 0.267138355889 1 85 85 85 7225
73	31702 25 89 89 0.267138455889 0.267138455889 1 85 85 85 7225
74	31727 25 89 89 0.267138455889 0.267138455889 1 85 85 85 7225
75	31752 25 90 90 0.267138455889 0.267138455889 1 85 85 85 7225
76	31777 25 90 90 0.267138455889 0.267138455889 1 85 85 85 7225
77	31802 26 104 104 0.298093349175 0.298093349175 1 85 85 85 7225
78	31828 26 104 104 0.298093349175 0.298093349175 1 85 85 85 7225
79	31854 50 104 104 0.298093349175 0.298093349175 2 0 1 1 1
80	31904 26 104 104 0.298093349175 0.298093349175 1 85 85 85 7225
81	31930 25 104 104 0.298093349175 0.298093349175 1 0 0 0 0
82	31955 26 105 105 0.298093349175 0.298093349175 1 85 85 85 7225
83	31981 26 105 105 0.298093349175 0.298093349175 1 85 85 85 7225
84	32007 50 105 105 0.298093349175 0.298093349175 2 0 1 1 1
85	32057 26 105 105 0.298093349175 0.298093349175 1 85 85 85 7225
86	32083 25 105 105 0.298093349175 0.298093349175 1 0 0 0 0
87	32108 26 110 110 0.298100789175 0.298100789175 1 85 85 85 7225
88	32134 26 111 111 0.298100789175 0.298100789175 1 85 85 85 7225
89	32160 26 112 112 0.298100889175 0.298100889175 1 85 85 85 7225
90	32186 26 112 112 0.298100889175 0.298100889175 1 85 85 85 7225
91	32212 26 113 113 0.298100889175 0.298100889175 1 85 85 85 7225
92	32238 26 113 113 0.298100889175 0.298100889175 1 85 85 85 7225
93	32264 26 127 127 0.369146156207 0.369146156207 1 85 85 85 7225
94	32290 26 127 127 0.369146156207 0.369146156207 1 85 85 85 7225
95	32316 50 127 127 0.369146156207 0.369146156207 2 0 1 1 1
96	32366 26 127 127 0.369146156207 0.369146156207 1 85 85 85 7225
97	32392 25 127 127 0.369146156207 0.369146156207 1 0 0 0 0
98	32417 26 128 128 0.369146156207 0.369146156207 1 85 85 85 7225
99	32443 26 128 128 0.369146156207 0.369146156207 1 85 85 85 7225
100	32469 52 128 128 0.369146156207 0.369146156207 2 0 1 1 1
101	32521 27 128 128 0.369146156207 0.369146156207 1 85 85 85 7225
102	32548 26 128 128 0.369146156207 0.369146156207 1 0 0 0 0
103	32574 27 129 129 0.369146156207 0.369146156207 1 85 85 85 7225
104	32601 27 129 129 0.369146156207 0.369146156207 1 85 85 85 7225
105	32628 52 129 129 0.369146156207 0.369146156207 2 0 1 1 1
106	32680 27 129 129 0.369146156207 0.369146156207 1 85 85 85 7225
107	32707 26 129 129 0.369146156207 0.369146156207 1 0 0 0 0
108	32733 27 135 135 0.369153596207 0.369153596207 1 85 85 85 7225
109	32760 27 136 136 0.369153596207 0.369153596207 1 85 85 85 7225
110	32787 27 137 137 0.369153596207 0.369153596207 1 85 85 85 7225
111	32814 27 138 138 0.369153696207 0.369153696207 1 85 85 85 7225
112	32841 27 138 138 0.369153696207 0.369153696207 1 85 85 85 7225
113	32868 27 139 139 0.369153696207 0.369153696207 1 85 85 85 7225
114	32895 27 139 139 0.369153696207 0.369153696207 1 85 85 85 7225
115	32922 27 140 140 0.369153696207 0.369153696207 1 85 85 85 7225
116	32949 27 140 140 0.369153696207 0.369153696207 1 85 85 85 7225
117	32976 27 145 145 0.369153696207 0.369153696207 1 64 64 64 4096
118	33003 27 145 145 0.369153696207 0.369153696207 1 64 64 64 4096
119	33030 27 147 147 0.369153696207 0.369153696207 1 64 64 64 4096
120	33057 27 149 149 0.369153696207 0.369153696207 1 85 85 85 7225
121	33084 27 149 149 0.369153696207 0.369153696207 1 85 85 85 7225
122	33111 52 149 149 0.369153696207 0.369153696207 2 0 1 1 1
123	33163 27 149 149 0.369153696207 0.369153696207 1 85 85 85 7225
124	33190 26 149 149 0.369153696207 0.369153696207 1 0 0 0 0
125	33216 54 161 168 0.369160516207 0.369162196207 2 64 85 149 11321
126	33270 54 161 168 0.369160516207 0.369162196207 2 64 85 149 11321
127	33324 104 161 171 0.369160516207 0.369166276207 4 0 1 2 2
128	33428 54 161 171 0.369160516207 0.369166276207 2 64 85 149 11321
129	33482 60 161 171 0.369160516207 0.369166276207 2 0 4.08e-006 4.08e-006 1.66464e-011
130	33542 27 165 165 0.369162096207 0.369162096207 1 85 85 85 7225
131	33569 27 166 166 0.369162196207 0.369162196207 1 85 85 85 7225
132	33596 27 166 166 0.369162196207 0.369162196207 1 85 85 85 7225
133	33623 54 171 178 0.369166276207 0.369174676207 2 64 85 149 11321
134	33677 27 172 172 0.369166376207 0.369166376207 1 64 64 64 4096
135	33704 27 172 172 0.369166376207 0.369166376207 1 64 64 64 4096
134	33731 27 179 179 0.369174776207 0.369174776207 1 85 85 85 7225
135	33758 27 179 179 0.369174776207 0.369174776207 1 85 85 85 7225
3	33785 25 185 185 0.383554552845 0.383554552845 1 64 64 64 4096
4	33810 50 210 211 0.383569632845 0.383569632845 2 21 64 85 4537
20	33860 26 186 186 0.383554552845 0.383554552845 1 85 85 85 7225
21	33886 26 186 186 0.383554552845 0.383554552845 1 85 85 85 7225
22	33912 50 186 186 0.383554552845 0.383554552845 2 0 1 1 1
23	33962 26 186 186 0.383554552845 0.383554552845 1 85 85 85 7225
24	33988 25 186 186 0.383554552845 0.383554552845 1 0 0 0 0
25	34013 52 213 214 0.383569632845 0.383569632845 2 42 85 127 8989
26	34065 52 213 214 0.383569632845 0.383569632845 2 64 85 149 11321
27	34117 100 213 224 0.383569632845 0.383576352845 4 0 1 2 2
28	34217 52 213 224 0.383569632845 0.383576352845 2 64 85 149 11321
29	34269 58 213 224 0.383569632845 0.383576352845 2 0 6.72e-006 6.72e-006 4.51584e-011
33	34327 26 188 188 0.383561992845 0.383561992845 1 85 85 85 7225
34	34353 52 224 245 0.383576352845 0.383584752845 2 64 85 149 11321
41	34405 26 189 189 0.383562092845 0.383562092845 1 85 85 85 7225
42	34431 26 189 189 0.383562092845 0.383562092845 1 85 85 85 7225
43	34457 52 225 246 0.383576452845 0.383584852845 2 64 85 149 11321
44	34509 52 225 246 0.383576452845 0.383584852845 2 64 85 149 11321
93	34561 26 191 191 0.383562092845 0.383562092845 1 85 85 85 7225
94	34587 26 191 191 0.383562092845 0.383562092845 1 85 85 85 7225
95	34613 50 191 191 0.383562092845 0.383562092845 2 0 1 1 1
96	34663 26 191 191 0.383562092845 0.383562092845 1 85 85 85 7225
97	34689 25 191 191 0.383562092845 0.383562092845 1 0 0 0 0
98	34714 78 227 248 0.383576452845 0.383584852845 3 64 85 234 18546
99	34792 78 227 248 0.383576452845 0.383584852845 3 64 85 234 18546
100	34870 156 227 251 0.383576452845 0.383590612845 6 0 1 3 3
101	35026 81 227 251 0.383576452845 0.383590612845 3 64 85 234 18546
102	35107 94 227 251 0.383576452845 0.383590612845 3 0 5.76e-006 9.84e-006 4.9824e-011
103	35201 27 193 193 0.383562092845 0.383562092845 1 85 85 85 7225
104	35228 27 193 193 0.383562092845 0.383562092845 1 85 85 85 7225
105	35255 52 193 193 0.383562092845 0.383562092845 2 0 1 1 1
106	35307 27 193 193 0.383562092845 0.383562092845 1 85 85 85 7225
107	35334 26 193 193 0.383562092845 0.383562092845 1 0 0 0 0
108	35360 27 199 199 0.383569532845 0.383569532845 1 85 85 85 7225
109	35387 54 238 251 0.383582212845 0.383590612845 2 64 85 149 11321
110	35441 27 201 201 0.383569532845 0.383569532845 1 85 85 85 7225
111	35468 27 202 202 0.383569632845 0.383569632845 1 85 85 85 7225
112	35495 27 202 202 0.383569632845 0.383569632845 1 85 85 85 7225
113	35522 54 239 252 0.383582312845 0.383590712845 2 64 85 149 11321
114	35576 54 239 252 0.383582312845 0.383590712845 2 64 85 149 11321
115	35630 27 204 204 0.383569632845 0.383569632845 1 85 85 85 7225
116	35657 27 204 204 0.383569632845 0.383569632845 1 85 85 85 7225
117	35684 27 209 209 0.383569632845 0.383569632845 1 64 64 64 4096
118	35711 27 209 209 0.383569632845 0.383569632845 1 64 64 64 4096
119	35738 27 212 212 0.383569632845 0.383569632845 1 64 64 64 4096
120	35765 27 215 215 0.383569632845 0.383569632845 1 85 85 85 7225
121	35792 27 215 215 0.383569632845 0.383569632845 1 85 85 85 7225
122	35819 52 215 215 0.383569632845 0.383569632845 2 0 1 1 1
123	35871 27 215 215 0.383569632845 0.383569632845 1 85 85 85 7225
124	35898 26 215 215 0.383569632845 0.383569632845 1 0 0 0 0
125	35924 27 192 192 0.383562092845 0.383562092845 1 85 85 85 7225
126	35951 27 192 192 0.383562092845 0.383562092845 1 85 85 85 7225
127	35978 52 192 192 0.383562092845 0.383562092845 2 0 1 1 1
128	36030 27 192 192 0.383562092845 0.383562092845 1 85 85 85 7225
129	36057 26 192 192 0.383562092845 0.383562092845 1 0 0 0 0
130	36083 27 232 232 0.383578032845 0.383578032845 1 85 85 85 7225
131	36110 27 233 233 0.383578132845 0.383578132845 1 85 85 85 7225
132	36137 27 233 233 0.383578132845 0.383578132845 1 85 85 85 7225
133	36164 27 200 200 0.383569532845 0.383569532845 1 85 85 85 7225
134	36191 27 203 203 0.383569632845 0.383569632845 1 85 85 85 7225
135	36218 27 203 203 0.383569632845 0.383569632845 1 85 85 85 7225
3	36245 25 255 255 0.383590712845 0.383590712845 1 64 64 64 4096
20	36270 26 256 256 0.383590712845 0.383590712845 1 85 85 85 7225
21	36296 26 256 256 0.383590712845 0.383590712845 1 85 85 85 7225
22	36322 50 256 256 0.383590712845 0.383590712845 2 0 1 1 1
23	36372 26 256 256 0.383590712845 0.383590712845 1 85 85 85 7225
24	36398 25 256 256 0.383590712845 0.383590712845 1 0 0 0 0
33	36423 26 262 262 0.383599112845 0.383599112845 1 85 85 85 7225
109	36449 27 261 261 0.383599012845 0.383599012845 1 85 85 85 7225
113	36476 27 263 263 0.383599112845 0.383599112845 1 85 85 85 7225
114	36503 27 263 263 0.383599112845 0.383599112845 1 85 85 85 7225
2	36530 23 279 279 0.5180865789 0.5180865789 1 64 64 64 4096
15	36553 24 280 280 0.5180865789 0.5180865789 1 85 85 85 7225
16	36577 24 280 280 0.5180865789 0.5180865789 1 85 85 85 7225
17	36601 46 280 280 0.5180865789 0.5180865789 2 0 1 1 1
18	36647 24 280 280 0.5180865789 0.5180865789 1 85 85 85 7225
19	36671 23 280 280 0.5180865789 0.5180865789 1 0 0 0 0
41	36694 26 266 266 0.383599212845 0.383599212845 1 85 85 85 7225
42	36720 26 266 266 0.383599212845 0.383599212845 1 85 85 85 7225
125	36746 27 268 268 0.383599212845 0.383599212845 1 85 85 85 7225
126	36773 27 268 268 0.383599212845 0.383599212845 1 85 85 85 7225
127	36800 52 268 268 0.383599212845 0.383599212845 2 0 1 1 1
128	36852 27 268 268 0.383599212845 0.383599212845 1 85 85 85 7225
129	36879 26 268 268 0.383599212845 0.383599212845 1 0 0 0 0
133	36905 27 272 272 0.383606652845 0.383606652845 1 85 85 85 7225
134	36932 27 273 273 0.383606752845 0.383606752845 1 85 85 85 7225
135	36959 27 273 273 0.383606752845 0.383606752845 1 85 85 85 7225
vector 136 TestNetwork.switch4.eth[1].mac packetReceivedFromUpper:vector(packetBytes) ETV
attr interpolationmode none
attr source packetReceivedFromUpper
attr title "packet bytes from higher layer, vector(packetBytes)"
vector 137 TestNetwork.switch4.eth[1].mac.queue packetPushed:vector(packetBytes) ETV
attr interpolationmode none
attr title "packet pushed, vector(packetBytes)"
vector 138 TestNetwork.switch4.eth[1].mac.queue queueLength:vector ETV
attr interpolationmode sample-hold
attr source "count(packetPushed) - count(packetPopped) - count(packetRemoved) - count(packetDropped)"
attr title "queue length, vector"
vector 139 TestNetwork.switch4.eth[1].mac.queue packetPopped:vector(packetBytes) ETV
attr interpolationmode none
attr title "packet popped, vector(packetBytes)"
vector 140 TestNetwork.switch4.eth[1].mac.queue queueingTime:vector ETV
attr interpolationmode none
attr source queueingTime(packetPopped)
attr title "queueing times, vector"
attr unit s
vector 141 TestNetwork.switch6.eth[1].mac packetReceivedFromUpper:vector(packetBytes) ETV
attr interpolationmode none
attr source packetReceivedFromUpper
attr title "packet bytes from higher layer, vector(packetBytes)"
vector 142 TestNetwork.switch6.eth[1].mac.queue packetPushed:vector(packetBytes) ETV
attr interpolationmode none
attr title "packet pushed, vector(packetBytes)"
vector 143 TestNetwork.switch6.eth[1].mac.queue queueLength:vector ETV
attr interpolationmode sample-hold
attr source "count(packetPushed) - count(packetPopped) - count(packetRemoved) - count(packetDropped)"
attr title "queue length, vector"
vector 144 TestNetwork.switch6.eth[1].mac.queue packetPopped:vector(packetBytes) ETV
attr interpolationmode none
attr title "packet popped, vector(packetBytes)"
vector 145 TestNetwork.switch6.eth[1].mac.queue queueingTime:vector ETV
attr interpolationmode none
attr source queueingTime(packetPopped)
attr title "queueing times, vector"
attr unit s
vector 146 TestNetwork.switch6.eth[2].mac packetReceivedFromUpper:vector(packetBytes) ETV
attr interpolationmode none
attr source packetReceivedFromUpper
attr title "packet bytes from higher layer, vector(packetBytes)"
vector 147 TestNetwork.switch6.eth[2].mac.queue packetPushed:vector(packetBytes) ETV
attr interpolationmode none
attr title "packet pushed, vector(packetBytes)"
vector 148 TestNetwork.switch6.eth[2].mac.queue queueLength:vector ETV
attr interpolationmode sample-hold
attr source "count(packetPushed) - count(packetPopped) - count(packetRemoved) - count(packetDropped)"
attr title "queue length, vector"
vector 149 TestNetwork.switch6.eth[2].mac.queue packetPopped:vector(packetBytes) ETV
attr interpolationmode none
attr title "packet popped, vector(packetBytes)"
vector 150 TestNetwork.switch6.eth[2].mac.queue queueingTime:vector ETV
attr interpolationmode none
attr source queueingTime(packetPopped)
attr title "queueing times, vector"
attr unit s
vector 151 TestNetwork.switch4.eth[1].mac txPk:vector(packetBytes) ETV
attr interpolationmode none
attr source packetSentToLower
attr title "packets transmitted, vector(packetBytes)"
vector 152 TestNetwork.switch6.eth[1].mac txPk:vector(packetBytes) ETV
attr interpolationmode none
attr source packetSentToLower
attr title "packets transmitted, vector(packetBytes)"
vector 153 TestNetwork.switch6.eth[2].mac txPk:vector(packetBytes) ETV
attr interpolationmode none
attr source packetSentToLower
attr title "packets transmitted, vector(packetBytes)"
vector 154 TestNetwork.rsu[1].eth.mac rxPkOk:vector(packetBytes) ETV
attr interpolationmode none
attr source rxPkOk
attr title "packets received OK, vector(packetBytes)"
vector 155 TestNetwork.rsu[1].eth.mac passedUpPk:vector(packetBytes) ETV
attr interpolationmode none
attr source packetSentToUpper
attr title "packets passed to higher layer, vector(packetBytes)"
vector 156 TestNetwork.ES3.eth.mac rxPkOk:vector(packetBytes) ETV
attr interpolationmode none
attr source rxPkOk
attr title "packets received OK, vector(packetBytes)"
vector 157 TestNetwork.ES3.eth.mac passedUpPk:vector(packetBytes) ETV
attr interpolationmode none
attr source packetSentToUpper
attr title "packets passed to higher layer, vector(packetBytes)"
vector 158 TestNetwork.switch7.eth[0].mac rxPkOk:vector(packetBytes) ETV
attr interpolationmode none
attr source rxPkOk
attr title "packets received OK, vector(packetBytes)"
vector 159 TestNetwork.switch7.eth[0].mac passedUpPk:vector(packetBytes) ETV
attr interpolationmode none
attr source packetSentToUpper
attr title "packets passed to higher layer, vector(packetBytes)"
vector 160 TestNetwork.ES3.srv packetReceived:vector(packetBytes) ETV
attr interpolationmode none
attr source packetReceived
attr title "packets received, vector(packetBytes)"
vector 161 TestNetwork.ES3.srv packetSent:vector(packetBytes) ETV
attr interpolationmode none
attr source packetSent
attr title "packets sent, vector(packetBytes)"
32	41986 24 282 282 0.5180940189 0.5180940189 1 85 85 85 7225
39	42010 24 283 283 0.5180941189 0.5180941189 1 85 85 85 7225
40	42034 24 283 283 0.5180941189 0.5180941189 1 85 85 85 7225
45	42058 24 285 285 0.5180941189 0.5180941189 1 85 85 85 7225
46	42082 24 285 285 0.5180941189 0.5180941189 1 85 85 85 7225
47	42106 46 285 285 0.5180941189 0.5180941189 2 0 1 1 1
48	42152 24 285 285 0.5180941189 0.5180941189 1 85 85 85 7225
49	42176 23 285 285 0.5180941189 0.5180941189 1 0 0 0 0
50	42199 24 286 286 0.5180941189 0.5180941189 1 85 85 85 7225
51	42223 24 286 286 0.5180941189 0.5180941189 1 85 85 85 7225
52	42247 46 286 286 0.5180941189 0.5180941189 2 0 1 1 1
53	42293 24 286 286 0.5180941189 0.5180941189 1 85 85 85 7225
54	42317 23 286 286 0.5180941189 0.5180941189 1 0 0 0 0
55	42340 24 291 291 0.5181015589 0.5181015589 1 85 85 85 7225
56	42364 24 292 292 0.5181015589 0.5181015589 1 85 85 85 7225
57	42388 24 293 293 0.5181016589 0.5181016589 1 85 85 85 7225
58	42412 24 293 293 0.5181016589 0.5181016589 1 85 85 85 7225
59	42436 24 294 294 0.5181016589 0.5181016589 1 85 85 85 7225
60	42460 24 294 294 0.5181016589 0.5181016589 1 85 85 85 7225
77	42484 24 297 297 0.5181016589 0.5181016589 1 85 85 85 7225
78	42508 24 297 297 0.5181016589 0.5181016589 1 85 85 85 7225
79	42532 46 297 297 0.5181016589 0.5181016589 2 0 1 1 1
80	42578 24 297 297 0.5181016589 0.5181016589 1 85 85 85 7225
81	42602 23 297 297 0.5181016589 0.5181016589 1 0 0 0 0
87	42625 24 309 309 0.5181090989 0.5181090989 1 85 85 85 7225
89	42649 24 313 313 0.5181091989 0.5181091989 1 85 85 85 7225
90	42673 24 313 313 0.5181091989 0.5181091989 1 85 85 85 7225
136	42697 25 298 298 0.5181016589 0.5181016589 1 85 85 85 7225
137	42722 25 298 298 0.5181016589 0.5181016589 1 85 85 85 7225
138	42747 48 298 298 0.5181016589 0.5181016589 2 0 1 1 1
139	42795 25 298 298 0.5181016589 0.5181016589 1 85 85 85 7225
140	42820 24 298 298 0.5181016589 0.5181016589 1 0 0 0 0
141	42844 25 299 299 0.5181016589 0.5181016589 1 85 85 85 7225
142	42869 25 299 299 0.5181016589 0.5181016589 1 85 85 85 7225
143	42894 48 299 299 0.5181016589 0.5181016589 2 0 1 1 1
144	42942 25 299 299 0.5181016589 0.5181016589 1 85 85 85 7225
145	42967 24 299 299 0.5181016589 0.5181016589 1 0 0 0 0
146	42991 25 300 300 0.5181016589 0.5181016589 1 85 85 85 7225
147	43016 25 300 300 0.5181016589 0.5181016589 1 85 85 85 7225
148	43041 48 300 300 0.5181016589 0.5181016589 2 0 1 1 1
149	43089 25 300 300 0.5181016589 0.5181016589 1 85 85 85 7225
150	43114 24 300 300 0.5181016589 0.5181016589 1 0 0 0 0
151	43138 25 310 310 0.5181090989 0.5181090989 1 85 85 85 7225
152	43163 25 311 311 0.5181090989 0.5181090989 1 85 85 85 7225
153	43188 25 312 312 0.5181090989 0.5181090989 1 85 85 85 7225
154	43213 25 314 314 0.5181091989 0.5181091989 1 85 85 85 7225
155	43238 25 314 314 0.5181091989 0.5181091989 1 85 85 85 7225
156	43263 25 315 315 0.5181091989 0.5181091989 1 85 85 85 7225
157	43288 25 315 315 0.5181091989 0.5181091989 1 85 85 85 7225
158	43313 25 316 316 0.5181091989 0.5181091989 1 85 85 85 7225
159	43338 25 316 316 0.5181091989 0.5181091989 1 85 85 85 7225
160	43363 25 322 322 0.5181091989 0.5181091989 1 64 64 64 4096
161	43388 25 322 322 0.5181091989 0.5181091989 1 64 64 64 4096
vector 162 TestNetwork.ES3.llc encapPk:vector(packetBytes) ETV
attr interpolationmode none
attr source encapPk
attr title "packets encapsulated, vector(packetBytes)"
vector 163 TestNetwork.ES3.eth.mac packetReceivedFromUpper:vector(packetBytes) ETV
attr interpolationmode none
attr source packetReceivedFromUpper
attr title "packet bytes from higher layer, vector(packetBytes)"
vector 164 TestNetwork.ES3.eth.mac.queue packetPushed:vector(packetBytes) ETV
attr interpolationmode none
attr title "packet pushed, vector(packetBytes)"
vector 165 TestNetwork.ES3.eth.mac.queue queueLength:vector ETV
attr interpolationmode sample-hold
attr source "count(packetPushed) - count(packetPopped) - count(packetRemoved) - count(packetDropped)"
attr title "queue length, vector"
vector 166 TestNetwork.ES3.eth.mac.queue packetPopped:vector(packetBytes) ETV
attr interpolationmode none
attr title "packet popped, vector(packetBytes)"
vector 167 TestNetwork.ES3.eth.mac.queue queueingTime:vector ETV
attr interpolationmode none
attr source queueingTime(packetPopped)
attr title "queueing times, vector"
attr unit s
vector 168 TestNetwork.ES3.eth.mac txPk:vector(packetBytes) ETV
attr interpolationmode none
attr source packetSentToLower
attr title "packets transmitted, vector(packetBytes)"
vector 169 TestNetwork.switch6.eth[1].mac rxPkOk:vector(packetBytes) ETV
attr interpolationmode none
attr source rxPkOk
attr title "packets received OK, vector(packetBytes)"
vector 170 TestNetwork.switch6.eth[1].mac passedUpPk:vector(packetBytes) ETV
attr interpolationmode none
attr source packetSentToUpper
attr title "packets passed to higher layer, vector(packetBytes)"
vector 171 TestNetwork.switch6.eth[0].mac packetReceivedFromUpper:vector(packetBytes) ETV
attr interpolationmode none
attr source packetReceivedFromUpper
attr title "packet bytes from higher layer, vector(packetBytes)"
vector 172 TestNetwork.switch6.eth[0].mac.queue packetPushed:vector(packetBytes) ETV
attr interpolationmode none
attr title "packet pushed, vector(packetBytes)"
vector 173 TestNetwork.switch6.eth[0].mac.queue queueLength:vector ETV
attr interpolationmode sample-hold
attr source "count(packetPushed) - count(packetPopped) - count(packetRemoved) - count(packetDropped)"
attr title "queue length, vector"
vector 174 TestNetwork.switch6.eth[0].mac.queue packetPopped:vector(packetBytes) ETV
attr interpolationmode none
attr title "packet popped, vector(packetBytes)"
vector 175 TestNetwork.switch6.eth[0].mac.queue queueingTime:vector ETV
attr interpolationmode none
attr source queueingTime(packetPopped)
attr title "queueing times, vector"
attr unit s
vector 176 TestNetwork.switch5.eth[1].mac packetReceivedFromUpper:vector(packetBytes) ETV
attr interpolationmode none
attr source packetReceivedFromUpper
attr title "packet bytes from higher layer, vector(packetBytes)"
vector 177 TestNetwork.switch5.eth[1].mac.queue packetPushed:vector(packetBytes) ETV
attr interpolationmode none
attr title "packet pushed, vector(packetBytes)"
vector 178 TestNetwork.switch5.eth[1].mac.queue queueLength:vector ETV
attr interpolationmode sample-hold
attr source "count(packetPushed) - count(packetPopped) - count(packetRemoved) - count(packetDropped)"
attr title "queue length, vector"
vector 179 TestNetwork.switch5.eth[1].mac.queue packetPopped:vector(packetBytes) ETV
attr interpolationmode none
attr title "packet popped, vector(packetBytes)"
vector 180 TestNetwork.switch5.eth[1].mac.queue queueingTime:vector ETV
attr interpolationmode none
attr source queueingTime(packetPopped)
attr title "queueing times, vector"
attr unit s
vector 181 TestNetwork.switch6.eth[0].mac txPk:vector(packetBytes) ETV
attr interpolationmode none
attr source packetSentToLower
attr title "packets transmitted, vector(packetBytes)"
vector 182 TestNetwork.switch5.eth[2].mac rxPkOk:vector(packetBytes) ETV
attr interpolationmode none
attr source rxPkOk
attr title "packets received OK, vector(packetBytes)"
vector 183 TestNetwork.switch5.eth[2].mac passedUpPk:vector(packetBytes) ETV
attr interpolationmode none
attr source packetSentToUpper
attr title "packets passed to higher layer, vector(packetBytes)"
vector 184 TestNetwork.switch5.eth[1].mac txPk:vector(packetBytes) ETV
attr interpolationmode none
attr source packetSentToLower
attr title "packets transmitted, vector(packetBytes)"
vector 185 TestNetwork.rsu[2].eth.mac rxPkOk:vector(packetBytes) ETV
attr interpolationmode none
attr source rxPkOk
attr title "packets received OK, vector(packetBytes)"
vector 186 TestNetwork.rsu[2].eth.mac passedUpPk:vector(packetBytes) ETV
attr interpolationmode none
attr source packetSentToUpper
attr title "packets passed to higher layer, vector(packetBytes)"
1	48207 23 323 323 0.5181091989 0.5181091989 1 21 21 21 441
10	48230 24 325 325 0.5181091989 0.5181091989 1 42 42 42 1764
11	48254 24 325 325 0.5181091989 0.5181091989 1 64 64 64 4096
12	48278 46 325 325 0.5181091989 0.5181091989 2 0 1 1 1
13	48324 24 325 325 0.5181091989 0.5181091989 1 64 64 64 4096
14	48348 23 325 325 0.5181091989 0.5181091989 1 0 0 0 0
31	48371 24 337 337 0.5181159189 0.5181159189 1 64 64 64 4096
37	48395 24 338 338 0.5181160189 0.5181160189 1 64 64 64 4096
38	48419 24 338 338 0.5181160189 0.5181160189 1 64 64 64 4096
82	48443 24 340 340 0.5181160189 0.5181160189 1 64 64 64 4096
83	48467 24 340 340 0.5181160189 0.5181160189 1 64 64 64 4096
84	48491 46 340 340 0.5181160189 0.5181160189 2 0 1 1 1
85	48537 24 340 340 0.5181160189 0.5181160189 1 64 64 64 4096
86	48561 23 340 340 0.5181160189 0.5181160189 1 0 0 0 0
88	48584 24 351 351 0.5181217789 0.5181217789 1 64 64 64 4096
91	48608 24 352 352 0.5181218789 0.5181218789 1 64 64 64 4096
92	48632 24 352 352 0.5181218789 0.5181218789 1 64 64 64 4096
162	48656 25 324 324 0.5181091989 0.5181091989 1 64 64 64 4096
163	48681 25 326 326 0.5181091989 0.5181091989 1 85 85 85 7225
164	48706 25 326 326 0.5181091989 0.5181091989 1 85 85 85 7225
165	48731 48 326 326 0.5181091989 0.5181091989 2 0 1 1 1
166	48779 25 326 326 0.5181091989 0.5181091989 1 85 85 85 7225
167	48804 24 326 326 0.5181091989 0.5181091989 1 0 0 0 0
168	48828 25 344 344 0.5181175989 0.5181175989 1 85 85 85 7225
169	48853 25 345 345 0.5181176989 0.5181176989 1 85 85 85 7225
170	48878 25 345 345 0.5181176989 0.5181176989 1 85 85 85 7225
171	48903 25 347 347 0.5181176989 0.5181176989 1 85 85 85 7225
172	48928 25 347 347 0.5181176989 0.5181176989 1 85 85 85 7225
173	48953 48 347 347 0.5181176989 0.5181176989 2 0 1 1 1
174	49001 25 347 347 0.5181176989 0.5181176989 1 85 85 85 7225
175	49026 24 347 347 0.5181176989 0.5181176989 1 0 0 0 0
176	49050 50 354 361 0.5181218789 0.5181252389 2 64 85 149 11321
177	49100 50 354 361 0.5181218789 0.5181252389 2 64 85 149 11321
178	49150 96 354 364 0.5181218789 0.5181276389 4 0 1 2 2
179	49246 50 354 364 0.5181218789 0.5181276389 2 64 85 149 11321
180	49296 55 354 364 0.5181218789 0.5181276389 2 0 2.4e-006 2.4e-006 5.76e-012
181	49351 25 358 358 0.5181251389 0.5181251389 1 85 85 85 7225
182	49376 25 359 359 0.5181252389 0.5181252389 1 85 85 85 7225
183	49401 25 359 359 0.5181252389 0.5181252389 1 85 85 85 7225
184	49426 50 364 371 0.5181276389 0.5181360389 2 64 85 149 11321
185	49476 50 365 372 0.5181277389 0.5181361389 2 64 85 149 11321
186	49526 50 365 372 0.5181277389 0.5181361389 2 64 85 149 11321
vector 187 TestNetwork.switch2.eth[1].mac packetReceivedFromUpper:vector(packetBytes) ETV
attr interpolationmode none
attr source packetReceivedFromUpper
attr title "packet bytes from higher layer, vector(packetBytes)"
vector 188 TestNetwork.switch2.eth[1].mac.queue packetPushed:vector(packetBytes) ETV
attr interpolationmode none
attr title "packet pushed, vector(packetBytes)"
vector 189 TestNetwork.switch2.eth[1].mac.queue queueLength:vector ETV
attr interpolationmode sample-hold
attr source "count(packetPushed) - count(packetPopped) - count(packetRemoved) - count(packetDropped)"
attr title "queue length, vector"
vector 190 TestNetwork.switch2.eth[1].mac.queue packetPopped:vector(packetBytes) ETV
attr interpolationmode none
attr title "packet popped, vector(packetBytes)"
vector 191 TestNetwork.switch2.eth[1].mac.queue queueingTime:vector ETV
attr interpolationmode none
attr source queueingTime(packetPopped)
attr title "queueing times, vector"
attr unit s
vector 192 TestNetwork.switch2.eth[2].mac packetReceivedFromUpper:vector(packetBytes) ETV
attr interpolationmode none
attr source packetReceivedFromUpper
attr title "packet bytes from higher layer, vector(packetBytes)"
vector 193 TestNetwork.switch2.eth[2].mac.queue packetPushed:vector(packetBytes) ETV
attr interpolationmode none
attr title "packet pushed, vector(packetBytes)"
vector 194 TestNetwork.switch2.eth[2].mac.queue queueLength:vector ETV
attr interpolationmode sample-hold
attr source "count(packetPushed) - count(packetPopped) - count(packetRemoved) - count(packetDropped)"
attr title "queue length, vector"
vector 195 TestNetwork.switch2.eth[2].mac.queue packetPopped:vector(packetBytes) ETV
attr interpolationmode none
attr title "packet popped, vector(packetBytes)"
vector 196 TestNetwork.switch2.eth[2].mac.queue queueingTime:vector ETV
attr interpolationmode none
attr source queueingTime(packetPopped)
attr title "queueing times, vector"
attr unit s
vector 197 TestNetwork.switch3.eth[1].mac packetReceivedFromUpper:vector(packetBytes) ETV
attr interpolationmode none
attr source packetReceivedFromUpper
attr title "packet bytes from higher layer, vector(packetBytes)"
vector 198 TestNetwork.switch3.eth[1].mac.queue packetPushed:vector(packetBytes) ETV
attr interpolationmode none
attr title "packet pushed, vector(packetBytes)"
vector 199 TestNetwork.switch3.eth[1].mac.queue queueLength:vector ETV
attr interpolationmode sample-hold
attr source "count(packetPushed) - count(packetPopped) - count(packetRemoved) - count(packetDropped)"
attr title "queue length, vector"
vector 200 TestNetwork.switch3.eth[1].mac.queue packetPopped:vector(packetBytes) ETV
attr interpolationmode none
attr title "packet popped, vector(packetBytes)"
vector 201 TestNetwork.switch3.eth[1].mac.queue queueingTime:vector ETV
attr interpolationmode none
attr source queueingTime(packetPopped)
attr title "queueing times, vector"
attr unit s
vector 202 TestNetwork.switch2.eth[1].mac txPk:vector(packetBytes) ETV
attr interpolationmode none
attr source packetSentToLower
attr title "packets transmitted, vector(packetBytes)"
vector 203 TestNetwork.switch2.eth[2].mac txPk:vector(packetBytes) ETV
attr interpolationmode none
attr source packetSentToLower
attr title "packets transmitted, vector(packetBytes)"
vector 204 TestNetwork.switch3.eth[1].mac txPk:vector(packetBytes) ETV
attr interpolationmode none
attr source packetSentToLower
attr title "packets transmitted, vector(packetBytes)"
vector 205 TestNetwork.ES1.eth.mac rxPkOk:vector(packetBytes) ETV
attr interpolationmode none
attr source rxPkOk
attr title "packets received OK, vector(packetBytes)"
vector 206 TestNetwork.ES1.eth.mac passedUpPk:vector(packetBytes) ETV
attr interpolationmode none
attr source packetSentToUpper
attr title "packets passed to higher layer, vector(packetBytes)"
vector 207 TestNetwork.ES2.eth.mac rxPkOk:vector(packetBytes) ETV
attr interpolationmode none
attr source rxPkOk
attr title "packets received OK, vector(packetBytes)"
vector 208 TestNetwork.ES2.eth.mac passedUpPk:vector(packetBytes) ETV
attr interpolationmode none
attr source packetSentToUpper
attr title "packets passed to higher layer, vector(packetBytes)"
vector 209 TestNetwork.switch4.eth[0].mac rxPkOk:vector(packetBytes) ETV
attr interpolationmode none
attr source rxPkOk
attr title "packets received OK, vector(packetBytes)"
vector 210 TestNetwork.switch4.eth[0].mac passedUpPk:vector(packetBytes) ETV
attr interpolationmode none
attr source packetSentToUpper
attr title "packets passed to higher layer, vector(packetBytes)"
vector 211 TestNetwork.ES1.srv packetReceived:vector(packetBytes) ETV
attr interpolationmode none
attr source packetReceived
attr title "packets received, vector(packetBytes)"
vector 212 TestNetwork.ES1.srv packetSent:vector(packetBytes) ETV
attr interpolationmode none
attr source packetSent
attr title "packets sent, vector(packetBytes)"
vector 213 TestNetwork.ES2.srv packetReceived:vector(packetBytes) ETV
attr interpolationmode none
attr source packetReceived
attr title "packets received, vector(packetBytes)"
vector 214 TestNetwork.ES2.srv packetSent:vector(packetBytes) ETV
attr interpolationmode none
attr source packetSent
attr title "packets sent, vector(packetBytes)"
vector 215 TestNetwork.ES1.llc encapPk:vector(packetBytes) ETV
attr interpolationmode none
attr source encapPk
attr title "packets encapsulated, vector(packetBytes)"
vector 216 TestNetwork.ES2.llc encapPk:vector(packetBytes) ETV
attr interpolationmode none
attr source encapPk
attr title "packets encapsulated, vector(packetBytes)"
vector 217 TestNetwork.ES1.eth.mac packetReceivedFromUpper:vector(packetBytes) ETV
attr interpolationmode none
attr source packetReceivedFromUpper
attr title "packet bytes from higher layer, vector(packetBytes)"
vector 218 TestNetwork.ES1.eth.mac.queue packetPushed:vector(packetBytes) ETV
attr interpolationmode none
attr title "packet pushed, vector(packetBytes)"
vector 219 TestNetwork.ES1.eth.mac.queue queueLength:vector ETV
attr interpolationmode sample-hold
attr source "count(packetPushed) - count(packetPopped) - count(packetRemoved) - count(packetDropped)"
attr title "queue length, vector"
vector 220 TestNetwork.ES1.eth.mac.queue packetPopped:vector(packetBytes) ETV
attr interpolationmode none
attr title "packet popped, vector(packetBytes)"
vector 221 TestNetwork.ES1.eth.mac.queue queueingTime:vector ETV
attr interpolationmode none
attr source queueingTime(packetPopped)
attr title "queueing times, vector"
attr unit s
vector 222 TestNetwork.ES2.eth.mac packetReceivedFromUpper:vector(packetBytes) ETV
attr interpolationmode none
attr source packetReceivedFromUpper
attr title "packet bytes from higher layer, vector(packetBytes)"
vector 223 TestNetwork.ES2.eth.mac.queue packetPushed:vector(packetBytes) ETV
attr interpolationmode none
attr title "packet pushed, vector(packetBytes)"
vector 224 TestNetwork.ES2.eth.mac.queue queueLength:vector ETV
attr interpolationmode sample-hold
attr source "count(packetPushed) - count(packetPopped) - count(packetRemoved) - count(packetDropped)"
attr title "queue length, vector"
vector 225 TestNetwork.ES2.eth.mac.queue packetPopped:vector(packetBytes) ETV
attr interpolationmode none
attr title "packet popped, vector(packetBytes)"
vector 226 TestNetwork.ES2.eth.mac.queue queueingTime:vector ETV
attr interpolationmode none
attr source queueingTime(packetPopped)
attr title "queueing times, vector"
attr unit s
vector 227 TestNetwork.ES1.eth.mac txPk:vector(packetBytes) ETV
attr interpolationmode none
attr source packetSentToLower
attr title "packets transmitted, vector(packetBytes)"
vector 228 TestNetwork.ES2.eth.mac txPk:vector(packetBytes) ETV
attr interpolationmode none
attr source packetSentToLower
attr title "packets transmitted, vector(packetBytes)"
vector 229 TestNetwork.switch2.eth[1].mac rxPkOk:vector(packetBytes) ETV
attr interpolationmode none
attr source rxPkOk
attr title "packets received OK, vector(packetBytes)"
vector 230 TestNetwork.switch2.eth[1].mac passedUpPk:vector(packetBytes) ETV
attr interpolationmode none
attr source packetSentToUpper
attr title "packets passed to higher layer, vector(packetBytes)"
vector 231 TestNetwork.switch2.eth[2].mac rxPkOk:vector(packetBytes) ETV
attr interpolationmode none
attr source rxPkOk
attr title "packets received OK, vector(packetBytes)"
vector 232 TestNetwork.switch2.eth[2].mac passedUpPk:vector(packetBytes) ETV
attr interpolationmode none
attr source packetSentToUpper
attr title "packets passed to higher layer, vector(packetBytes)"
vector 233 TestNetwork.switch2.eth[0].mac packetReceivedFromUpper:vector(packetBytes) ETV
attr interpolationmode none
attr source packetReceivedFromUpper
attr title "packet bytes from higher layer, vector(packetBytes)"
vector 234 TestNetwork.switch2.eth[0].mac.queue packetPushed:vector(packetBytes) ETV
attr interpolationmode none
attr title "packet pushed, vector(packetBytes)"
vector 235 TestNetwork.switch2.eth[0].mac.queue queueLength:vector ETV
attr interpolationmode sample-hold
attr source "count(packetPushed) - count(packetPopped) - count(packetRemoved) - count(packetDropped)"
attr title "queue length, vector"
vector 236 TestNetwork.switch2.eth[0].mac.queue packetPopped:vector(packetBytes) ETV
attr interpolationmode none
attr title "packet popped, vector(packetBytes)"
vector 237 TestNetwork.switch2.eth[0].mac.queue queueingTime:vector ETV
attr interpolationmode none
attr source queueingTime(packetPopped)
attr title "queueing times, vector"
attr unit s
vector 238 TestNetwork.switch2.eth[0].mac txPk:vector(packetBytes) ETV
attr interpolationmode none
attr source packetSentToLower
attr title "packets transmitted, vector(packetBytes)"
vector 239 TestNetwork.switch1.eth[1].mac rxPkOk:vector(packetBytes) ETV
attr interpolationmode none
attr source rxPkOk
attr title "packets received OK, vector(packetBytes)"
vector 240 TestNetwork.switch1.eth[1].mac passedUpPk:vector(packetBytes) ETV
attr interpolationmode none
attr source packetSentToUpper
attr title "packets passed to higher layer, vector(packetBytes)"
vector 241 TestNetwork.switch1.eth[0].mac packetReceivedFromUpper:vector(packetBytes) ETV
attr interpolationmode none
attr source packetReceivedFromUpper
attr title "packet bytes from higher layer, vector(packetBytes)"
vector 242 TestNetwork.switch1.eth[0].mac.queue packetPushed:vector(packetBytes) ETV
attr interpolationmode none
attr title "packet pushed, vector(packetBytes)"
vector 243 TestNetwork.switch1.eth[0].mac.queue queueLength:vector ETV
attr interpolationmode sample-hold
attr source "count(packetPushed) - count(packetPopped) - count(packetRemoved) - count(packetDropped)"
attr title "queue length, vector"
vector 244 TestNetwork.switch1.eth[0].mac.queue packetPopped:vector(packetBytes) ETV
attr interpolationmode none
attr title "packet popped, vector(packetBytes)"
vector 245 TestNetwork.switch1.eth[0].mac.queue queueingTime:vector ETV
attr interpolationmode none
attr source queueingTime(packetPopped)
attr title "queueing times, vector"
attr unit s
vector 246 TestNetwork.switch1.eth[0].mac txPk:vector(packetBytes) ETV
attr interpolationmode none
attr source packetSentToLower
attr title "packets transmitted, vector(packetBytes)"
vector 247 TestNetwork.rsu[0].eth.mac rxPkOk:vector(packetBytes) ETV
attr interpolationmode none
attr source rxPkOk
attr title "packets received OK, vector(packetBytes)"
vector 248 TestNetwork.rsu[0].eth.mac passedUpPk:vector(packetBytes) ETV
attr interpolationmode none
attr source packetSentToUpper
attr title "packets passed to higher layer, vector(packetBytes)"
0	61398 25 378 378 0.578474488778 0.578474488778 1 64 64 64 4096
5	61423 25 379 379 0.578474488778 0.578474488778 1 85 85 85 7225
6	61448 25 379 379 0.578474488778 0.578474488778 1 85 85 85 7225
7	61473 48 379 379 0.578474488778 0.578474488778 2 0 1 1 1
8	61521 25 379 379 0.578474488778 0.578474488778 1 85 85 85 7225
9	61546 24 379 379 0.578474488778 0.578474488778 1 0 0 0 0
30	61570 26 381 381 0.578481928778 0.578481928778 1 85 85 85 7225
35	61596 26 382 382 0.578482028778 0.578482028778 1 85 85 85 7225
36	61622 26 382 382 0.578482028778 0.578482028778 1 85 85 85 7225
61	61648 26 384 384 0.578482028778 0.578482028778 1 85 85 85 7225
62	61674 26 384 384 0.578482028778 0.578482028778 1 85 85 85 7225
63	61700 50 384 384 0.578482028778 0.578482028778 2 0 1 1 1
64	61750 26 384 384 0.578482028778 0.578482028778 1 85 85 85 7225
65	61776 25 384 384 0.578482028778 0.578482028778 1 0 0 0 0
66	61801 26 385 385 0.578482028778 0.578482028778 1 85 85 85 7225
67	61827 26 385 385 0.578482028778 0.578482028778 1 85 85 85 7225
68	61853 50 385 385 0.578482028778 0.578482028778 2 0 1 1 1
69	61903 26 385 385 0.578482028778 0.578482028778 1 85 85 85 7225
70	61929 25 385 385 0.578482028778 0.578482028778 1 0 0 0 0
71	61954 26 390 390 0.578489468778 0.578489468778 1 85 85 85 7225
72	61980 26 391 391 0.578489468778 0.578489468778 1 85 85 85 7225
73	62006 26 392 392 0.578489568778 0.578489568778 1 85 85 85 7225
74	62032 26 392 392 0.578489568778 0.578489568778 1 85 85 85 7225
75	62058 26 393 393 0.578489568778 0.578489568778 1 85 85 85 7225
76	62084 26 393 393 0.578489568778 0.578489568778 1 85 85 85 7225
187	62110 27 396 396 0.578489568778 0.578489568778 1 85 85 85 7225
188	62137 27 396 396 0.578489568778 0.578489568778 1 85 85 85 7225
189	62164 52 396 396 0.578489568778 0.578489568778 2 0 1 1 1
190	62216 27 396 396 0.578489568778 0.578489568778 1 85 85 85 7225
191	62243 26 396 396 0.578489568778 0.578489568778 1 0 0 0 0
192	62269 27 397 397 0.578489568778 0.578489568778 1 85 85 85 7225
193	62296 27 397 397 0.578489568778 0.578489568778 1 85 85 85 7225
194	62323 52 397 397 0.578489568778 0.578489568778 2 0 1 1 1
195	62375 27 397 397 0.578489568778 0.578489568778 1 85 85 85 7225
196	62402 26 397 397 0.578489568778 0.578489568778 1 0 0 0 0
197	62428 27 398 398 0.578489568778 0.578489568778 1 85 85 85 7225
198	62455 27 398 398 0.578489568778 0.578489568778 1 85 85 85 7225
199	62482 52 398 398 0.578489568778 0.578489568778 2 0 1 1 1
200	62534 27 398 398 0.578489568778 0.578489568778 1 85 85 85 7225
201	62561 26 398 398 0.578489568778 0.578489568778 1 0 0 0 0
202	62587 27 406 406 0.578497008778 0.578497008778 1 85 85 85 7225
203	62614 27 407 407 0.578497008778 0.578497008778 1 85 85 85 7225
204	62641 27 408 408 0.578497008778 0.578497008778 1 85 85 85 7225
205	62668 27 409 409 0.578497108778 0.578497108778 1 85 85 85 7225
206	62695 27 409 409 0.578497108778 0.578497108778 1 85 85 85 7225
207	62722 27 410 410 0.578497108778 0.578497108778 1 85 85 85 7225
208	62749 27 410 410 0.578497108778 0.578497108778 1 85 85 85 7225
209	62776 27 411 411 0.578497108778 0.578497108778 1 85 85 85 7225
210	62803 27 411 411 0.578497108778 0.578497108778 1 85 85 85 7225
211	62830 27 415 415 0.578497108778 0.578497108778 1 64 64 64 4096
212	62857 27 415 415 0.578497108778 0.578497108778 1 64 64 64 4096
213	62884 27 416 416 0.578497108778 0.578497108778 1 64 64 64 4096
214	62911 27 416 416 0.578497108778 0.578497108778 1 64 64 64 4096
215	62938 27 417 417 0.578497108778 0.578497108778 1 64 64 64 4096
216	62965 27 418 418 0.578497108778 0.578497108778 1 64 64 64 4096
217	62992 27 419 419 0.578497108778 0.578497108778 1 85 85 85 7225
218	63019 27 419 419 0.578497108778 0.578497108778 1 85 85 85 7225
219	63046 52 419 419 0.578497108778 0.578497108778 2 0 1 1 1
220	63098 27 419 419 0.578497108778 0.578497108778 1 85 85 85 7225
221	63125 26 419 419 0.578497108778 0.578497108778 1 0 0 0 0
222	63151 27 420 420 0.578497108778 0.578497108778 1 85 85 85 7225
223	63178 27 420 420 0.578497108778 0.578497108778 1 85 85 85 7225
224	63205 52 420 420 0.578497108778 0.578497108778 2 0 1 1 1
225	63257 27 420 420 0.578497108778 0.578497108778 1 85 85 85 7225
226	63284 26 420 420 0.578497108778 0.578497108778 1 0 0 0 0
227	63310 27 429 429 0.578505508778 0.578505508778 1 85 85 85 7225
228	63337 27 430 430 0.578505508778 0.578505508778 1 85 85 85 7225
229	63364 27 431 431 0.578505608778 0.578505608778 1 85 85 85 7225
230	63391 27 431 431 0.578505608778 0.578505608778 1 85 85 85 7225
231	63418 27 432 432 0.578505608778 0.578505608778 1 85 85 85 7225
232	63445 27 432 432 0.578505608778 0.578505608778 1 85 85 85 7225
233	63472 54 435 436 0.578505608778 0.578505608778 2 85 85 170 14450
234	63526 54 435 436 0.578505608778 0.578505608778 2 85 85 170 14450
235	63580 104 435 442 0.578505608778 0.578513048778 4 0 1 2 2
236	63684 54 435 442 0.578505608778 0.578513048778 2 85 85 170 14450
237	63738 60 435 442 0.578505608778 0.578513048778 2 0 7.44e-006 7.44e-006 5.53536e-011
238	63798 54 442 454 0.578513048778 0.578521448778 2 85 85 170 14450
239	63852 27 443 443 0.578513148778 0.578513148778 1 85 85 85 7225
240	63879 27 443 443 0.578513148778 0.578513148778 1 85 85 85 7225
241	63906 27 445 445 0.578513148778 0.578513148778 1 85 85 85 7225
242	63933 27 445 445 0.578513148778 0.578513148778 1 85 85 85 7225
243	63960 52 445 445 0.578513148778 0.578513148778 2 0 1 1 1
244	64012 27 445 445 0.578513148778 0.578513148778 1 85 85 85 7225
245	64039 26 445 445 0.578513148778 0.578513148778 1 0 0 0 0
246	64065 27 450 450 0.578520588778 0.578520588778 1 85 85 85 7225
247	64092 27 451 451 0.578520688778 0.578520688778 1 85 85 85 7225
248	64119 27 451 451 0.578520688778 0.578520688778 1 85 85 85 7225
1	64146 25 470 470 0.602838596855 0.602838596855 1 64 64 64 4096
239	64171 27 455 455 0.578521548778 0.578521548778 1 85 85 85 7225
240	64198 27 455 455 0.578521548778 0.578521548778 1 85 85 85 7225
241	64225 27 458 458 0.578521548778 0.578521548778 1 85 85 85 7225
242	64252 27 458 458 0.578521548778 0.578521548778 1 85 85 85 7225
243	64279 52 458 458 0.578521548778 0.578521548778 2 0 1 1 1
244	64331 27 458 458 0.578521548778 0.578521548778 1 85 85 85 7225
245	64358 26 458 458 0.578521548778 0.578521548778 1 0 0 0 0
246	64384 27 463 463 0.578528988778 0.578528988778 1 85 85 85 7225
247	64411 27 464 464 0.578529088778 0.578529088778 1 85 85 85 7225
248	64438 27 464 464 0.578529088778 0.578529088778 1 85 85 85 7225
vector 249 TestNetwork.switch3.eth[0].mac packetReceivedFromUpper:vector(packetBytes) ETV
attr interpolationmode none
attr source packetReceivedFromUpper
attr title "packet bytes from higher layer, vector(packetBytes)"
vector 250 TestNetwork.switch3.eth[0].mac.queue packetPushed:vector(packetBytes) ETV
attr interpolationmode none
attr title "packet pushed, vector(packetBytes)"
vector 251 TestNetwork.switch3.eth[0].mac.queue queueLength:vector ETV
attr interpolationmode sample-hold
attr source "count(packetPushed) - count(packetPopped) - count(packetRemoved) - count(packetDropped)"
attr title "queue length, vector"
vector 252 TestNetwork.switch3.eth[0].mac.queue packetPopped:vector(packetBytes) ETV
attr interpolationmode none
attr title "packet popped, vector(packetBytes)"
vector 253 TestNetwork.switch3.eth[0].mac.queue queueingTime:vector ETV
attr interpolationmode none
attr source queueingTime(packetPopped)
attr title "queueing times, vector"
attr unit s
vector 254 TestNetwork.switch3.eth[0].mac txPk:vector(packetBytes) ETV
attr interpolationmode none
attr source packetSentToLower
attr title "packets transmitted, vector(packetBytes)"
vector 255 TestNetwork.switch1.eth[2].mac rxPkOk:vector(packetBytes) ETV
attr interpolationmode none
attr source rxPkOk
attr title "packets received OK, vector(packetBytes)"
vector 256 TestNetwork.switch1.eth[2].mac passedUpPk:vector(packetBytes) ETV
attr interpolationmode none
attr source packetSentToUpper
attr title "packets passed to higher layer, vector(packetBytes)"
1	66023 25 558 558 0.602891516855 0.602891516855 1 64 64 64 4096
2	66048 50 508 509 0.602861216855 0.602861216855 2 21 64 85 4537
10	66098 52 471 559 0.602838596855 0.602891516855 2 85 85 170 14450
11	66150 52 471 559 0.602838596855 0.602891516855 2 85 85 170 14450
12	66202 100 471 559 0.602838596855 0.602891516855 4 0 1 2 2
13	66302 52 471 559 0.602838596855 0.602891516855 2 85 85 170 14450
14	66354 50 471 559 0.602838596855 0.602891516855 2 0 0 0 0
15	66404 52 510 511 0.602861216855 0.602861216855 2 42 85 127 8989
16	66456 52 510 511 0.602861216855 0.602861216855 2 64 85 149 11321
17	66508 100 510 519 0.602861216855 0.602867936855 4 0 1 2 2
18	66608 52 510 519 0.602861216855 0.602867936855 2 64 85 149 11321
19	66660 58 510 519 0.602861216855 0.602867936855 2 0 6.72e-006 6.72e-006 4.51584e-011
31	66718 26 473 473 0.602846036855 0.602846036855 1 85 85 85 7225
[...]
19	564989 862 33208 41834 62.83862266115 81.342416417819 26 0 2.52e-005 0.0003024 5.92704e-009
20	565851 548 33238 41763 62.83863106115 81.342399617819 19 85 85 1615 137275
21	566399 548 33238 41763 62.83863106115 81.342399617819 19 85 85 1615 137275
22	566947 1058 33238 41835 62.83863106115 81.342416417819 38 0 2 31 43
23	568005 548 33238 41835 62.83863106115 81.342416417819 19 85 85 1615 137275
24	568553 619 33238 41835 62.83863106115 81.342416417819 19 0 1.68e-005 0.0001512 2.1168e-009
25	569172 577 33272 41797 62.83863946115 81.342408017819 20 85 85 1700 144500
26	569749 577 33272 41797 62.83863946115 81.342408017819 20 85 85 1700 144500
27	570326 1086 33272 41836 62.83863946115 81.342416417819 39 0 2 32 44
28	571412 548 33272 41836 62.83863946115 81.342416417819 19 85 85 1615 137275
29	571960 611 33272 41836 62.83863946115 81.342416417819 19 0 1.68e-005 0.0001344 1.83456e-009
30	572571 58 32338 32365 59.754429822955 59.754438222955 2 85 85 170 14450
31	572629 116 32431 32509 59.754453302955 59.754478502955 4 85 85 340 28900
32	572745 721 33231 41834 62.83863106115 81.342416417819 25 85 85 2125 180625
33	573466 519 33265 41835 62.83863946115 81.342416417819 18 85 85 1530 130050
34	573985 519 33313 41836 62.83864786115 81.342416417819 18 85 85 1530 130050
35	574504 58 32342 32370 59.754429922955 59.754438322955 2 85 85 170 14450
36	574562 58 32342 32370 59.754429922955 59.754438322955 2 85 85 170 14450
37	574620 116 32435 32514 59.754453402955 59.754478602955 4 85 85 340 28900
38	574736 116 32435 32514 59.754453402955 59.754478602955 4 85 85 340 28900
39	574852 721 33241 41837 62.83863116115 81.342416517819 25 85 85 2125 180625
40	575573 721 33241 41837 62.83863116115 81.342416517819 25 85 85 2125 180625
41	576294 519 33276 41838 62.83863956115 81.342416517819 18 85 85 1530 130050
42	576813 519 33276 41838 62.83863956115 81.342416517819 18 85 85 1530 130050
43	577332 519 33316 41839 62.83864796115 81.342416517819 18 85 85 1530 130050
44	577851 519 33316 41839 62.83864796115 81.342416517819 18 85 85 1530 130050
45	578370 952 33139 41803 62.83860672115 81.342408117819 33 85 85 2805 238425
46	579322 952 33139 41803 62.83860672115 81.342408117819 33 85 85 2805 238425
47	580274 1838 33139 41803 62.83860672115 81.342408117819 66 0 1 33 33
48	582112 952 33139 41803 62.83860672115 81.342408117819 33 85 85 2805 238425
49	583064 927 33139 41803 62.83860672115 81.342408117819 33 0 7.44e-006 7.44e-006 5.53536e-011
50	583991 433 32513 41845 59.754478502955 81.342416517819 15 85 85 1275 108375
51	584424 433 32513 41845 59.754478502955 81.342416517819 15 85 85 1275 108375
52	584857 836 32513 41845 59.754478502955 81.342416517819 30 0 1 15 15
53	585693 433 32513 41845 59.754478502955 81.342416517819 15 85 85 1275 108375
54	586126 418 32513 41845 59.754478502955 81.342416517819 15 0 0 0 0
55	586544 952 33173 41822 62.83861416115 81.342415557819 33 85 85 2805 238425
56	587496 404 32524 40976 59.754485942955 80.941457055746 14 85 85 1190 101150
57	587900 952 33174 41824 62.83861426115 81.342415657819 33 85 85 2805 238425
58	588852 952 33174 41824 62.83861426115 81.342415657819 33 85 85 2805 238425
59	589804 404 32525 40979 59.754486042955 80.941457155746 14 85 85 1190 101150
60	590208 404 32525 40979 59.754486042955 80.941457155746 14 85 85 1190 101150
66	590612 174 32270 35672 59.754405482955 64.567049417246 6 85 85 510 43350
67	590786 174 32270 35672 59.754405482955 64.567049417246 6 85 85 510 43350
68	590960 336 32270 35672 59.754405482955 64.567049417246 12 0 1 6 6
69	591296 174 32270 35672 59.754405482955 64.567049417246 6 85 85 510 43350
70	591470 168 32270 35672 59.754405482955 64.567049417246 6 0 0 0 0
72	591638 174 32284 35684 59.754412922955 64.567056857246 6 85 85 510 43350
75	591812 174 32285 35685 59.754413022955 64.567056957246 6 85 85 510 43350
76	591986 174 32285 35685 59.754413022955 64.567056957246 6 85 85 510 43350
77	592160 202 32437 41784 59.754453402955 81.342407257819 7 85 85 595 50575
78	592362 202 32437 41784 59.754453402955 81.342407257819 7 85 85 595 50575
79	592564 390 32437 41784 59.754453402955 81.342407257819 14 0 1 7 7
80	592954 202 32437 41784 59.754453402955 81.342407257819 7 85 85 595 50575
81	593156 195 32437 41784 59.754453402955 81.342407257819 7 0 0 0 0
82	593351 174 32308 35660 59.754420562955 64.567047697246 6 85 85 510 43350
83	593525 174 32308 35660 59.754420562955 64.567047697246 6 85 85 510 43350
84	593699 336 32308 35660 59.754420562955 64.567047697246 12 0 1 6 6
85	594035 174 32308 35660 59.754420562955 64.567047697246 6 85 85 510 43350
86	594209 168 32308 35660 59.754420562955 64.567047697246 6 0 0 0 0
87	594377 202 32448 41817 59.754460842955 81.342414697819 7 85 85 595 50575
88	594579 174 32330 35677 59.754428002955 64.567055137246 6 85 85 510 43350
89	594753 202 32449 41818 59.754460942955 81.342414797819 7 85 85 595 50575
90	594955 202 32449 41818 59.754460942955 81.342414797819 7 85 85 595 50575
91	595157 174 32331 35678 59.754428102955 64.567055237246 6 85 85 510 43350
92	595331 174 32331 35678 59.754428102955 64.567055237246 6 85 85 510 43350
93	595505 1040 33281 41847 62.83863956115 81.342416517819 36 85 85 3060 260100
94	596545 1040 33281 41847 62.83863956115 81.342416517819 36 85 85 3060 260100
95	597585 1980 33281 41847 62.83863956115 81.342416517819 71 0 1 36 36
96	599565 1011 33281 41846 62.83863956115 81.342416517819 35 85 85 2975 252875
97	600576 1056 33281 41846 62.83863956115 81.342416517819 35 0 7.44e-006 7.44e-005 5.53536e-010
98	601632 750 32541 41740 59.754493582955 81.342392077819 26 85 85 2210 187850
99	602382 750 32541 41740 59.754493582955 81.342392077819 26 85 85 2210 187850
100	603132 1500 32541 41740 59.754493582955 81.342392077819 52 0 1 26 26
101	604632 776 32541 41740 59.754493582955 81.342392077819 26 85 85 2210 187850
102	605408 782 32541 41740 59.754493582955 81.342392077819 26 0 6.68e-006 2.672e-005 1.784896e-010
103	606190 60 35241 38833 63.778104852838 72.667736916767 2 85 85 170 14450
104	606250 60 35241 38833 63.778104852838 72.667736916767 2 85 85 170 14450
105	606310 116 35241 38833 63.778104852838 72.667736916767 4 0 1 2 2
106	606426 60 35241 38833 63.778104852838 72.667736916767 2 85 85 170 14450
107	606486 58 35241 38833 63.778104852838 72.667736916767 2 0 0 0 0
108	606544 1016 33300 41823 62.83864700115 81.342415557819 34 85 85 2890 245650
109	607560 776 32552 41753 59.754501022955 81.342399517819 26 85 85 2210 187850
110	608336 60 35245 38837 63.778112292838 72.667744356767 2 85 85 170 14450
111	608396 1016 33302 41825 62.83864710115 81.342415657819 34 85 85 2890 245650
112	609412 1016 33302 41825 62.83864710115 81.342415657819 34 85 85 2890 245650
113	610428 776 32553 41755 59.754501122955 81.342399617819 26 85 85 2210 187850
114	611204 776 32553 41755 59.754501122955 81.342399617819 26 85 85 2210 187850
115	611980 60 35246 38838 63.778112392838 72.667744456767 2 85 85 170 14450
116	612040 60 35246 38838 63.778112392838 72.667744456767 2 85 85 170 14450
117	612100 60 35248 38840 63.778112392838 72.667744456767 2 64 64 128 8192
118	612160 690 34416 41358 63.476056781252 81.167744456767 23 64 64 1472 94208
119	612850 690 34417 41363 63.476056781252 81.167744456767 23 64 64 1472 94208
120	613540 690 34422 41368 63.476056781252 81.167744456767 23 85 85 1955 166175
121	614230 690 34422 41368 63.476056781252 81.167744456767 23 85 85 1955 166175
122	614920 1334 34422 41441 63.476056781252 81.167777096767 46 0 4 71 175
123	616254 690 34422 41441 63.476056781252 81.167777096767 23 85 85 1955 166175
124	616944 818 34422 41441 63.476056781252 81.167777096767 23 0 3.264e-005 0.00034128 7.8532992e-009
125	617762 687 32560 41772 59.754501982955 81.342400477819 23 85 85 1955 166175
126	618449 687 32560 41772 59.754501982955 81.342400477819 23 85 85 1955 166175
127	619136 1328 32560 41772 59.754501982955 81.342400477819 46 0 1 23 23
128	620464 687 32560 41772 59.754501982955 81.342400477819 23 85 85 1955 166175
129	621151 664 32560 41772 59.754501982955 81.342400477819 23 0 0 0 0
130	621815 690 34428 41469 63.476064221252 81.167785496767 23 85 85 1955 166175
131	622505 690 34429 41470 63.476064321252 81.167785596767 23 85 85 1955 166175
132	623195 690 34429 41470 63.476064321252 81.167785596767 23 85 85 1955 166175
133	623885 687 32565 41786 59.754509422955 81.342407917819 23 85 85 1955 166175
134	624572 687 32566 41789 59.754509522955 81.342408017819 23 85 85 1955 166175
135	625259 687 32566 41789 59.754509522955 81.342408017819 23 85 85 1955 166175
136	625946 896 32362 41829 59.754437362955 81.342415657819 30 85 85 2550 216750
137	626842 896 32362 41829 59.754437362955 81.342415657819 30 85 85 2550 216750
138	627738 1732 32362 41829 59.754437362955 81.342415657819 60 0 1 30 30
139	629470 896 32362 41829 59.754437362955 81.342415657819 30 85 85 2550 216750
140	630366 866 32362 41829 59.754437362955 81.342415657819 30 0 0 0 0
141	631232 90 34125 41654 63.283186804385 81.342351697819 3 85 85 255 21675
142	631322 90 34125 41654 63.283186804385 81.342351697819 3 85 85 255 21675
143	631412 174 34125 41654 63.283186804385 81.342351697819 6 0 1 3 3
144	631586 90 34125 41654 63.283186804385 81.342351697819 3 85 85 255 21675
145	631676 87 34125 41654 63.283186804385 81.342351697819 3 0 0 0 0
146	631763 835 32527 41748 59.754486042955 81.342392937819 28 85 85 2380 202300
147	632598 835 32527 41748 59.754486042955 81.342392937819 28 85 85 2380 202300
148	633433 1614 32527 41748 59.754486042955 81.342392937819 56 0 1 28 28
149	635047 835 32527 41748 59.754486042955 81.342392937819 28 85 85 2380 202300
150	635882 807 32527 41748 59.754486042955 81.342392937819 28 0 0 0 0
151	636689 866 32382 41718 59.754444802955 81.342390257819 29 85 85 2465 209525
152	637555 90 34129 41658 63.283194244385 81.342359137819 3 85 85 255 21675
153	637645 835 32538 41768 59.754493482955 81.342400377819 28 85 85 2380 202300
154	638480 866 32383 41719 59.754444902955 81.342390357819 29 85 85 2465 209525
155	639346 866 32383 41719 59.754444902955 81.342390357819 29 85 85 2465 209525
156	640212 90 34130 41659 63.283194344385 81.342359237819 3 85 85 255 21675
157	640302 90 34130 41659 63.283194344385 81.342359237819 3 85 85 255 21675
158	640392 835 32539 41769 59.754493582955 81.342400477819 28 85 85 2380 202300
159	641227 835 32539 41769 59.754493582955 81.342400477819 28 85 85 2380 202300
160	642062 90 34132 41661 63.283194344385 81.342359237819 3 64 64 192 12288
161	642152 805 33095 41661 62.83858324115 81.342359237819 27 64 64 1728 110592
162	642957 805 33096 41665 62.83858324115 81.342359237819 27 64 64 1728 110592
163	643762 805 33101 41669 62.83858324115 81.342359237819 27 85 85 2295 195075
164	644567 805 33101 41669 62.83858324115 81.342359237819 27 85 85 2295 195075
165	645372 1556 33101 41708 62.83858324115 81.342384437819 54 0 4 81 195
166	646928 805 33101 41708 62.83858324115 81.342384437819 27 85 85 2295 195075
167	647733 952 33101 41708 62.83858324115 81.342384437819 27 0 3.264e-005 0.00039168 8.8411392e-009
168	648685 805 33107 41744 62.83859068115 81.342392837819 27 85 85 2295 195075
169	649490 805 33108 41745 62.83859078115 81.342392937819 27 85 85 2295 195075
170	650295 805 33108 41745 62.83859078115 81.342392937819 27 85 85 2295 195075
171	651100 1314 33124 41830 62.83859918115 81.342415657819 44 85 85 3740 317900
172	652414 1314 33124 41830 62.83859918115 81.342415657819 44 85 85 3740 317900
173	653728 2540 33124 41830 62.83859918115 81.342415657819 88 0 1 44 44
174	656268 1314 33124 41830 62.83859918115 81.342415657819 44 85 85 3740 317900
175	657582 1270 33124 41830 62.83859918115 81.342415657819 44 0 0 0 0
176	658852 777 32333 41705 59.754428102955 81.342383677819 26 85 85 2210 187850
177	659629 777 32333 41705 59.754428102955 81.342383677819 26 85 85 2210 187850
178	660406 1502 32333 41705 59.754428102955 81.342383677819 52 0 1 26 26
179	661908 777 32333 41705 59.754428102955 81.342383677819 26 85 85 2210 187850
180	662685 751 32333 41705 59.754428102955 81.342383677819 26 0 0 0 0
181	663436 1284 33135 41701 62.83860662115 81.342383577819 43 85 85 3655 310675
182	664720 1284 33136 41702 62.83860672115 81.342383677819 43 85 85 3655 310675
183	666004 1284 33136 41702 62.83860672115 81.342383677819 43 85 85 3655 310675
184	667288 777 32352 41722 59.754435542955 81.342391117819 26 85 85 2210 187850
185	668065 777 32353 41723 59.754435642955 81.342391217819 26 85 85 2210 187850
186	668842 777 32353 41723 59.754435642955 81.342391217819 26 85 85 2210 187850
187	669619 30 35611 35611 64.567025077246 64.567025077246 1 85 85 85 7225
188	669649 30 35611 35611 64.567025077246 64.567025077246 1 85 85 85 7225
189	669679 58 35611 35611 64.567025077246 64.567025077246 2 0 1 1 1
190	669737 30 35611 35611 64.567025077246 64.567025077246 1 85 85 85 7225
191	669767 29 35611 35611 64.567025077246 64.567025077246 1 0 0 0 0
192	669796 30 32259 32259 59.754397942955 59.754397942955 1 85 85 85 7225
193	669826 30 32259 32259 59.754397942955 59.754397942955 1 85 85 85 7225
194	669856 58 32259 32259 59.754397942955 59.754397942955 2 0 1 1 1
195	669914 30 32259 32259 59.754397942955 59.754397942955 1 85 85 85 7225
196	669944 29 32259 32259 59.754397942955 59.754397942955 1 0 0 0 0
197	669973 180 32287 35687 59.754413022955 64.567056957246 6 85 85 510 43350
198	670153 180 32287 35687 59.754413022955 64.567056957246 6 85 85 510 43350
199	670333 348 32287 35687 59.754413022955 64.567056957246 12 0 1 6 6
200	670681 180 32287 35687 59.754413022955 64.567056957246 6 85 85 510 43350
201	670861 174 32287 35687 59.754413022955 64.567056957246 6 0 0 0 0
202	671035 30 35618 35618 64.567032517246 64.567032517246 1 85 85 85 7225
203	671065 30 32266 32266 59.754405382955 59.754405382955 1 85 85 85 7225
204	671095 180 32305 35698 59.754420462955 64.567064397246 6 85 85 510 43350
209	671275 180 32306 35699 59.754420562955 64.567064497246 6 85 85 510 43350
210	671455 180 32306 35699 59.754420562955 64.567064497246 6 85 85 510 43350
212	671635 90 32247 32247 59.754390402955 59.754390402955 3 64 64 192 12288
214	671725 90 35599 35599 64.567017537246 64.567017537246 3 64 64 192 12288
215	671815 90 32248 32250 59.754390402955 59.754390402955 3 64 64 192 12288
216	671905 90 35600 35602 64.567017537246 64.567017537246 3 64 64 192 12288
217	671995 90 32251 32253 59.754390402955 59.754390402955 3 85 85 255 21675
218	672085 90 32251 32253 59.754390402955 59.754390402955 3 85 85 255 21675
219	672175 174 32251 32272 59.754390402955 59.754406242955 6 0 2 5 7
220	672349 90 32251 32272 59.754390402955 59.754406242955 3 85 85 255 21675
221	672439 104 32251 32272 59.754390402955 59.754406242955 3 0 1.584e-005 2.328e-005 3.062592e-010
222	672543 90 35603 35605 64.567017537246 64.567017537246 3 85 85 255 21675
223	672633 90 35603 35605 64.567017537246 64.567017537246 3 85 85 255 21675
224	672723 174 35603 35624 64.567017537246 64.567033377246 6 0 2 5 7
225	672897 90 35603 35624 64.567017537246 64.567033377246 3 85 85 255 21675
226	672987 104 35603 35624 64.567017537246 64.567033377246 3 0 1.584e-005 2.328e-005 3.062592e-010
227	673091 90 32255 32296 59.754397842955 59.754414642955 3 85 85 255 21675
228	673181 90 35607 35648 64.567024977246 64.567041777246 3 85 85 255 21675
229	673271 90 32256 32297 59.754397942955 59.754414742955 3 85 85 255 21675
230	673361 90 32256 32297 59.754397942955 59.754414742955 3 85 85 255 21675
231	673451 90 35608 35649 64.567025077246 64.567041877246 3 85 85 255 21675
232	673541 90 35608 35649 64.567025077246 64.567041877246 3 85 85 255 21675
233	673631 180 32258 35652 59.754397942955 64.567041877246 6 85 85 510 43350
234	673811 180 32258 35652 59.754397942955 64.567041877246 6 85 85 510 43350
235	673991 348 32258 35652 59.754397942955 64.567041877246 12 0 1 6 6
236	674339 180 32258 35652 59.754397942955 64.567041877246 6 85 85 510 43350
237	674519 174 32258 35652 59.754397942955 64.567041877246 6 0 0 0 0
238	674693 180 32265 35668 59.754405382955 64.567049317246 6 85 85 510 43350
239	674873 180 32267 35669 59.754405482955 64.567049417246 6 85 85 510 43350
240	675053 180 32267 35669 59.754405482955 64.567049417246 6 85 85 510 43350
241	675233 239 32293 40906 59.754413882955 80.941447035746 8 85 85 680 57800
242	675472 239 32293 40906 59.754413882955 80.941447035746 8 85 85 680 57800
243	675711 462 32293 40906 59.754413882955 80.941447035746 16 0 1 8 8
244	676173 239 32293 40906 59.754413882955 80.941447035746 8 85 85 680 57800
245	676412 231 32293 40906 59.754413882955 80.941447035746 8 0 0 0 0
246	676643 239 32310 40957 59.754421322955 80.941454475746 8 85 85 680 57800
247	676882 239 32311 40958 59.754421422955 80.941454575746 8 85 85 680 57800
248	677121 239 32311 40958 59.754421422955 80.941454575746 8 85 85 680 57800
249	677360 209 32451 41820 59.754460942955 81.342414797819 7 85 85 595 50575
250	677569 209 32451 41820 59.754460942955 81.342414797819 7 85 85 595 50575
251	677778 404 32451 41820 59.754460942955 81.342414797819 14 0 1 7 7
252	678182 209 32451 41820 59.754460942955 81.342414797819 7 85 85 595 50575
253	678391 202 32451 41820 59.754460942955 81.342414797819 7 0 0 0 0
254	678593 179 32470 40903 59.754468382955 80.941446935746 6 85 85 510 43350
255	678772 179 32471 40904 59.754468482955 80.941447035746 6 85 85 510 43350
256	678951 179 32471 40904 59.754468482955 80.941447035746 6 85 85 510 43350
257	679130 717 31660 41357 58 81 24 822.41153720787 1162.7575026558 23808.175833885 23869637.03961
258	679847 456 31660 41357 58 81 24 26.6 26.6 638.4 16981.44
259	680303 715 31660 41357 58 81 24 14.226260568594 15.439750928009 355.06316974067 5256.5292272247
260	681018 757 31660 41357 58 81 24 -1.0467797992751 0.92044633738697 -0.60913457081188 6.9696316770768
261	681775 627 31660 41357 58 81 24 0.973 5.5807864742478 58.742038364026 199.76877808672
262	682402 718 31660 41357 58 81 24 735.00279702553 1053.1269159622 21450.097535858 19390487.366864
263	683120 456 31660 41357 58 81 24 26.6 26.6 638.4 16981.44
264	683576 716 31660 41357 58 81 24 13.385962632845 14.53792636803 332.06879585905 4597.0739117055
265	684292 754 31660 41357 58 81 24 -1.1128665183205 0.82633197971154 0.52792659609113 6.5606982575522
266	685046 648 31660 41357 58 81 24 0.973 4.9062184409004 58.218104946328 183.68705969526
267	685694 719 31660 41357 58 81 24 683.13750736387 1000.2965618548 20214.563825402 17245797.683588
268	686413 456 31660 41357 58 81 24 26.6 26.6 638.4 16981.44
269	686869 713 31660 41357 58 81 24 13.015978402221 14.290865410604 331.44019704669 4580.3379148694
270	687582 756 31660 41357 58 81 24 -0.95977071607486 1.0063255461166 -0.77678523454815 6.8657458926219
271	688338 627 31660 41357 58 81 24 0.973 5.5251838686572 54.262383750544 174.51369734135
272	688965 718 31660 41357 58 81 24 632.46416108952 943.46833350027 18918.158922757 15123238.101226
273	689683 456 31660 41357 58 81 24 26.6 26.6 638.4 16981.44
274	690139 719 31660 41357 58 81 24 12.804051161071 14.061161663688 324.49555283061 4392.2797347001
275	690858 755 31660 41357 58 81 24 -1.169061293453 1.2496739038965 -0.66346664514858 11.280058236234
276	691613 629 31660 41357 58 81 24 0.973 6.2769490425147 59.169377704952 216.00438369065
277	692242 715 31660 41357 58 81 24 517.44499715861 784.45338979515 15629.420886664 10332420.674171
278	692957 456 31660 41357 58 81 24 26.6 26.6 638.4 16981.44
279	693413 716 31660 41357 58 81 24 10.989168656455 12.244899739907 278.88286147563 3243.6584538862
280	694129 753 31660 41357 58 81 24 -0.80152551287319 0.9170559264021 0.45700983509887 4.909802060218
281	694882 630 31660 41357 58 81 24 0.973 4.5765500104466 49.461510886838 130.54317371347
282	695512 30 32268 32268 59.754405482955 59.754405482955 1 85 85 85 7225
283	695542 30 35620 35620 64.567032617246 64.567032617246 1 85 85 85 7225

