version 2
run Default-0-20210603-17:37:05-13144
attr configname Default
attr datetime 20210603-17:37:05
attr experiment Default
attr inifile omnetpp.ini
attr iterationvars ""
attr iterationvarsf ""
attr measurement ""
attr network TestNetwork
attr processid 13144
attr repetition 0
attr replication #0
attr resultdir results
attr runnumber 0
attr seedset 13144
param *.playgroundSizeX 2500m
param *.playgroundSizeY 2500m
param *.playgroundSizeZ 50m
param *.annotations.draw true
param *.obstacles.debug false
param *.manager.updateInterval 1s
param *.manager.host "\"localhost\""
param *.manager.port 9999
param *.manager.autoShutdown true
param *.manager.launchConfig "xmldoc(\"Testing2.launchd.xml\")"
param *.rsu[0].mobility.x 100
param *.rsu[0].mobility.y 100
param *.rsu[0].mobility.z 3
param *.rsu[1].mobility.x 350
param *.rsu[1].mobility.y 100
param *.rsu[1].mobility.z 3
param *.rsu[2].mobility.x 600
param *.rsu[2].mobility.y 100
param *.rsu[2].mobility.z 3
param *.rsu[3].mobility.x 850
param *.rsu[3].mobility.y 100
param *.rsu[3].mobility.z 3
param *.rsu[4].mobility.x 1100
param *.rsu[4].mobility.y 100
param *.rsu[4].mobility.z 3
param *.rsu[*].applType "\"RSUClusterApp\""
param *.rsu[*].appl.headerLength "80 bit"
param *.rsu[*].appl.sendBeacons true
param *.rsu[*].appl.dataOnSch false
param *.rsu[*].appl.beaconInterval 2s
param *.rsu[*].appl.beaconUserPriority 7
param *.rsu[*].appl.dataUserPriority 5
param *.rsu[*].nic.phy80211p.antennaOffsetZ "0 m"
param **.switch*.relayUnit.typename "\"MacRelayUnit\""
param *.connectionManager.sendDirect true
param *.connectionManager.maxInterfDist 2600m
param *.connectionManager.drawMaxIntfDist false
param *.**.nic.mac1609_4.useServiceChannel false
param *.**.nic.mac1609_4.txPower 80mW
param *.**.nic.mac1609_4.bitrate 12Mbps
param *.**.nic.phy80211p.minPowerLevel -110dBm
param *.**.nic.phy80211p.allowTxDuringRx true
param *.**.nic.phy80211p.useNoiseFloor true
param *.**.nic.phy80211p.noiseFloor -98dBm
param *.**.nic.phy80211p.decider "xmldoc(\"config.xml\")"
param *.**.nic.phy80211p.analogueModels "xmldoc(\"config.xml\")"
param *.**.nic.phy80211p.usePropagationDelay true
param *.**.nic.phy80211p.antenna "xmldoc(\"antenna.xml\", \"/root/Antenna[@id='monopole']\")"
param *.node[*].nic.phy80211p.antennaOffsetY "0 m"
param *.node[*].nic.phy80211p.antennaOffsetZ "1.895 m"
param *.node[*].applType "\"VehicleApp\""
param *.node[*].appl.headerLength "80 bit"
param *.node[*].appl.sendBeacons false
param *.node[*].appl.dataOnSch false
param *.node[*].appl.beaconInterval 1s
param *.node[*].veinsmobility.x 0
param *.node[*].veinsmobility.y 0
param *.node[*].veinsmobility.z 0
param *.node[*].veinsmobility.setHostSpeed false
param *.node[*0].veinsmobility.accidentCount 0
param *.node[*0].veinsmobility.accidentStart 73s
param *.node[*0].veinsmobility.accidentDuration 50s

vector 0 TestNetwork.rsu[0].eth.encap encapPk:vector(packetBytes) ETV
attr interpolationmode none
attr source encapPk
attr title "packets encapsulated, vector(packetBytes)"
vector 1 TestNetwork.rsu[1].eth.encap encapPk:vector(packetBytes) ETV
attr interpolationmode none
attr source encapPk
attr title "packets encapsulated, vector(packetBytes)"
vector 2 TestNetwork.rsu[2].eth.encap encapPk:vector(packetBytes) ETV
attr interpolationmode none
attr source encapPk
attr title "packets encapsulated, vector(packetBytes)"
vector 3 TestNetwork.rsu[3].eth.encap encapPk:vector(packetBytes) ETV
attr interpolationmode none
attr source encapPk
attr title "packets encapsulated, vector(packetBytes)"
vector 4 TestNetwork.rsu[4].eth.encap encapPk:vector(packetBytes) ETV
attr interpolationmode none
attr source encapPk
attr title "packets encapsulated, vector(packetBytes)"
vector 5 TestNetwork.rsu[0].eth.mac packetReceivedFromUpper:vector(packetBytes) ETV
attr interpolationmode none
attr source packetReceivedFromUpper
attr title "packet bytes from higher layer, vector(packetBytes)"
vector 6 TestNetwork.rsu[0].eth.mac.queue packetPushed:vector(packetBytes) ETV
attr interpolationmode none
attr title "packet pushed, vector(packetBytes)"
vector 7 TestNetwork.rsu[0].eth.mac.queue queueLength:vector ETV
attr interpolationmode sample-hold
attr source "count(packetPushed) - count(packetPopped) - count(packetRemoved) - count(packetDropped)"
attr title "queue length, vector"
vector 8 TestNetwork.rsu[0].eth.mac.queue packetPopped:vector(packetBytes) ETV
attr interpolationmode none
attr title "packet popped, vector(packetBytes)"
vector 9 TestNetwork.rsu[0].eth.mac.queue queueingTime:vector ETV
attr interpolationmode none
attr source queueingTime(packetPopped)
attr title "queueing times, vector"
attr unit s
vector 10 TestNetwork.rsu[1].eth.mac packetReceivedFromUpper:vector(packetBytes) ETV
attr interpolationmode none
attr source packetReceivedFromUpper
attr title "packet bytes from higher layer, vector(packetBytes)"
vector 11 TestNetwork.rsu[1].eth.mac.queue packetPushed:vector(packetBytes) ETV
attr interpolationmode none
attr title "packet pushed, vector(packetBytes)"
vector 12 TestNetwork.rsu[1].eth.mac.queue queueLength:vector ETV
attr interpolationmode sample-hold
attr source "count(packetPushed) - count(packetPopped) - count(packetRemoved) - count(packetDropped)"
attr title "queue length, vector"
vector 13 TestNetwork.rsu[1].eth.mac.queue packetPopped:vector(packetBytes) ETV
attr interpolationmode none
attr title "packet popped, vector(packetBytes)"
vector 14 TestNetwork.rsu[1].eth.mac.queue queueingTime:vector ETV
attr interpolationmode none
attr source queueingTime(packetPopped)
attr title "queueing times, vector"
attr unit s
vector 15 TestNetwork.rsu[2].eth.mac packetReceivedFromUpper:vector(packetBytes) ETV
attr interpolationmode none
attr source packetReceivedFromUpper
attr title "packet bytes from higher layer, vector(packetBytes)"
vector 16 TestNetwork.rsu[2].eth.mac.queue packetPushed:vector(packetBytes) ETV
attr interpolationmode none
attr title "packet pushed, vector(packetBytes)"
vector 17 TestNetwork.rsu[2].eth.mac.queue queueLength:vector ETV
attr interpolationmode sample-hold
attr source "count(packetPushed) - count(packetPopped) - count(packetRemoved) - count(packetDropped)"
attr title "queue length, vector"
vector 18 TestNetwork.rsu[2].eth.mac.queue packetPopped:vector(packetBytes) ETV
attr interpolationmode none
attr title "packet popped, vector(packetBytes)"
vector 19 TestNetwork.rsu[2].eth.mac.queue queueingTime:vector ETV
attr interpolationmode none
attr source queueingTime(packetPopped)
attr title "queueing times, vector"
attr unit s
vector 20 TestNetwork.rsu[3].eth.mac packetReceivedFromUpper:vector(packetBytes) ETV
attr interpolationmode none
attr source packetReceivedFromUpper
attr title "packet bytes from higher layer, vector(packetBytes)"
vector 21 TestNetwork.rsu[3].eth.mac.queue packetPushed:vector(packetBytes) ETV
attr interpolationmode none
attr title "packet pushed, vector(packetBytes)"
vector 22 TestNetwork.rsu[3].eth.mac.queue queueLength:vector ETV
attr interpolationmode sample-hold
attr source "count(packetPushed) - count(packetPopped) - count(packetRemoved) - count(packetDropped)"
attr title "queue length, vector"
vector 23 TestNetwork.rsu[3].eth.mac.queue packetPopped:vector(packetBytes) ETV
attr interpolationmode none
attr title "packet popped, vector(packetBytes)"
vector 24 TestNetwork.rsu[3].eth.mac.queue queueingTime:vector ETV
attr interpolationmode none
attr source queueingTime(packetPopped)
attr title "queueing times, vector"
attr unit s
vector 25 TestNetwork.rsu[4].eth.mac packetReceivedFromUpper:vector(packetBytes) ETV
attr interpolationmode none
attr source packetReceivedFromUpper
attr title "packet bytes from higher layer, vector(packetBytes)"
vector 26 TestNetwork.rsu[4].eth.mac.queue packetPushed:vector(packetBytes) ETV
attr interpolationmode none
attr title "packet pushed, vector(packetBytes)"
vector 27 TestNetwork.rsu[4].eth.mac.queue queueLength:vector ETV
attr interpolationmode sample-hold
attr source "count(packetPushed) - count(packetPopped) - count(packetRemoved) - count(packetDropped)"
attr title "queue length, vector"
vector 28 TestNetwork.rsu[4].eth.mac.queue packetPopped:vector(packetBytes) ETV
attr interpolationmode none
attr title "packet popped, vector(packetBytes)"
vector 29 TestNetwork.rsu[4].eth.mac.queue queueingTime:vector ETV
attr interpolationmode none
attr source queueingTime(packetPopped)
attr title "queueing times, vector"
attr unit s
vector 30 TestNetwork.rsu[0].eth.mac txPk:vector(packetBytes) ETV
attr interpolationmode none
attr source packetSentToLower
attr title "packets transmitted, vector(packetBytes)"
vector 31 TestNetwork.rsu[1].eth.mac txPk:vector(packetBytes) ETV
attr interpolationmode none
attr source packetSentToLower
attr title "packets transmitted, vector(packetBytes)"
vector 32 TestNetwork.rsu[2].eth.mac txPk:vector(packetBytes) ETV
attr interpolationmode none
attr source packetSentToLower
attr title "packets transmitted, vector(packetBytes)"
vector 33 TestNetwork.rsu[3].eth.mac txPk:vector(packetBytes) ETV
attr interpolationmode none
attr source packetSentToLower
attr title "packets transmitted, vector(packetBytes)"
vector 34 TestNetwork.rsu[4].eth.mac txPk:vector(packetBytes) ETV
attr interpolationmode none
attr source packetSentToLower
attr title "packets transmitted, vector(packetBytes)"
vector 35 TestNetwork.switch1.eth[0].mac rxPkOk:vector(packetBytes) ETV
attr interpolationmode none
attr source rxPkOk
attr title "packets received OK, vector(packetBytes)"
vector 36 TestNetwork.switch1.eth[0].mac passedUpPk:vector(packetBytes) ETV
attr interpolationmode none
attr source packetSentToUpper
attr title "packets passed to higher layer, vector(packetBytes)"
vector 37 TestNetwork.switch4.eth[1].mac rxPkOk:vector(packetBytes) ETV
attr interpolationmode none
attr source rxPkOk
attr title "packets received OK, vector(packetBytes)"
vector 38 TestNetwork.switch4.eth[1].mac passedUpPk:vector(packetBytes) ETV
attr interpolationmode none
attr source packetSentToUpper
attr title "packets passed to higher layer, vector(packetBytes)"
vector 39 TestNetwork.switch5.eth[1].mac rxPkOk:vector(packetBytes) ETV
attr interpolationmode none
attr source rxPkOk
attr title "packets received OK, vector(packetBytes)"
vector 40 TestNetwork.switch5.eth[1].mac passedUpPk:vector(packetBytes) ETV
attr interpolationmode none
attr source packetSentToUpper
attr title "packets passed to higher layer, vector(packetBytes)"
vector 41 TestNetwork.switch7.eth[1].mac rxPkOk:vector(packetBytes) ETV
attr interpolationmode none
attr source rxPkOk
attr title "packets received OK, vector(packetBytes)"
vector 42 TestNetwork.switch7.eth[1].mac passedUpPk:vector(packetBytes) ETV
attr interpolationmode none
attr source packetSentToUpper
attr title "packets passed to higher layer, vector(packetBytes)"
vector 43 TestNetwork.switch7.eth[2].mac rxPkOk:vector(packetBytes) ETV
attr interpolationmode none
attr source rxPkOk
attr title "packets received OK, vector(packetBytes)"
vector 44 TestNetwork.switch7.eth[2].mac passedUpPk:vector(packetBytes) ETV
attr interpolationmode none
attr source packetSentToUpper
attr title "packets passed to higher layer, vector(packetBytes)"
vector 45 TestNetwork.switch5.eth[0].mac packetReceivedFromUpper:vector(packetBytes) ETV
attr interpolationmode none
attr source packetReceivedFromUpper
attr title "packet bytes from higher layer, vector(packetBytes)"
vector 46 TestNetwork.switch5.eth[0].mac.queue packetPushed:vector(packetBytes) ETV
attr interpolationmode none
attr title "packet pushed, vector(packetBytes)"
vector 47 TestNetwork.switch5.eth[0].mac.queue queueLength:vector ETV
attr interpolationmode sample-hold
attr source "count(packetPushed) - count(packetPopped) - count(packetRemoved) - count(packetDropped)"
attr title "queue length, vector"
vector 48 TestNetwork.switch5.eth[0].mac.queue packetPopped:vector(packetBytes) ETV
attr interpolationmode none
attr title "packet popped, vector(packetBytes)"
vector 49 TestNetwork.switch5.eth[0].mac.queue queueingTime:vector ETV
attr interpolationmode none
attr source queueingTime(packetPopped)
attr title "queueing times, vector"
attr unit s
vector 50 TestNetwork.switch5.eth[2].mac packetReceivedFromUpper:vector(packetBytes) ETV
attr interpolationmode none
attr source packetReceivedFromUpper
attr title "packet bytes from higher layer, vector(packetBytes)"
vector 51 TestNetwork.switch5.eth[2].mac.queue packetPushed:vector(packetBytes) ETV
attr interpolationmode none
attr title "packet pushed, vector(packetBytes)"
vector 52 TestNetwork.switch5.eth[2].mac.queue queueLength:vector ETV
attr interpolationmode sample-hold
attr source "count(packetPushed) - count(packetPopped) - count(packetRemoved) - count(packetDropped)"
attr title "queue length, vector"
vector 53 TestNetwork.switch5.eth[2].mac.queue packetPopped:vector(packetBytes) ETV
attr interpolationmode none
attr title "packet popped, vector(packetBytes)"
vector 54 TestNetwork.switch5.eth[2].mac.queue queueingTime:vector ETV
attr interpolationmode none
attr source queueingTime(packetPopped)
attr title "queueing times, vector"
attr unit s
vector 55 TestNetwork.switch5.eth[0].mac txPk:vector(packetBytes) ETV
attr interpolationmode none
attr source packetSentToLower
attr title "packets transmitted, vector(packetBytes)"
vector 56 TestNetwork.switch5.eth[2].mac txPk:vector(packetBytes) ETV
attr interpolationmode none
attr source packetSentToLower
attr title "packets transmitted, vector(packetBytes)"
vector 57 TestNetwork.switch4.eth[2].mac rxPkOk:vector(packetBytes) ETV
attr interpolationmode none
attr source rxPkOk
attr title "packets received OK, vector(packetBytes)"
vector 58 TestNetwork.switch4.eth[2].mac passedUpPk:vector(packetBytes) ETV
attr interpolationmode none
attr source packetSentToUpper
attr title "packets passed to higher layer, vector(packetBytes)"
vector 59 TestNetwork.switch6.eth[0].mac rxPkOk:vector(packetBytes) ETV
attr interpolationmode none
attr source rxPkOk
attr title "packets received OK, vector(packetBytes)"
vector 60 TestNetwork.switch6.eth[0].mac passedUpPk:vector(packetBytes) ETV
attr interpolationmode none
attr source packetSentToUpper
attr title "packets passed to higher layer, vector(packetBytes)"
vector 61 TestNetwork.switch1.eth[1].mac packetReceivedFromUpper:vector(packetBytes) ETV
attr interpolationmode none
attr source packetReceivedFromUpper
attr title "packet bytes from higher layer, vector(packetBytes)"
vector 62 TestNetwork.switch1.eth[1].mac.queue packetPushed:vector(packetBytes) ETV
attr interpolationmode none
attr title "packet pushed, vector(packetBytes)"
vector 63 TestNetwork.switch1.eth[1].mac.queue queueLength:vector ETV
attr interpolationmode sample-hold
attr source "count(packetPushed) - count(packetPopped) - count(packetRemoved) - count(packetDropped)"
attr title "queue length, vector"
vector 64 TestNetwork.switch1.eth[1].mac.queue packetPopped:vector(packetBytes) ETV
attr interpolationmode none
attr title "packet popped, vector(packetBytes)"
vector 65 TestNetwork.switch1.eth[1].mac.queue queueingTime:vector ETV
attr interpolationmode none
attr source queueingTime(packetPopped)
attr title "queueing times, vector"
attr unit s
vector 66 TestNetwork.switch1.eth[2].mac packetReceivedFromUpper:vector(packetBytes) ETV
attr interpolationmode none
attr source packetReceivedFromUpper
attr title "packet bytes from higher layer, vector(packetBytes)"
vector 67 TestNetwork.switch1.eth[2].mac.queue packetPushed:vector(packetBytes) ETV
attr interpolationmode none
attr title "packet pushed, vector(packetBytes)"
vector 68 TestNetwork.switch1.eth[2].mac.queue queueLength:vector ETV
attr interpolationmode sample-hold
attr source "count(packetPushed) - count(packetPopped) - count(packetRemoved) - count(packetDropped)"
attr title "queue length, vector"
vector 69 TestNetwork.switch1.eth[2].mac.queue packetPopped:vector(packetBytes) ETV
attr interpolationmode none
attr title "packet popped, vector(packetBytes)"
vector 70 TestNetwork.switch1.eth[2].mac.queue queueingTime:vector ETV
attr interpolationmode none
attr source queueingTime(packetPopped)
attr title "queueing times, vector"
attr unit s
vector 71 TestNetwork.switch1.eth[1].mac txPk:vector(packetBytes) ETV
attr interpolationmode none
attr source packetSentToLower
attr title "packets transmitted, vector(packetBytes)"
vector 72 TestNetwork.switch1.eth[2].mac txPk:vector(packetBytes) ETV
attr interpolationmode none
attr source packetSentToLower
attr title "packets transmitted, vector(packetBytes)"
vector 73 TestNetwork.switch2.eth[0].mac rxPkOk:vector(packetBytes) ETV
attr interpolationmode none
attr source rxPkOk
attr title "packets received OK, vector(packetBytes)"
vector 74 TestNetwork.switch2.eth[0].mac passedUpPk:vector(packetBytes) ETV
attr interpolationmode none
attr source packetSentToUpper
attr title "packets passed to higher layer, vector(packetBytes)"
vector 75 TestNetwork.switch3.eth[0].mac rxPkOk:vector(packetBytes) ETV
attr interpolationmode none
attr source rxPkOk
attr title "packets received OK, vector(packetBytes)"
vector 76 TestNetwork.switch3.eth[0].mac passedUpPk:vector(packetBytes) ETV
attr interpolationmode none
attr source packetSentToUpper
attr title "packets passed to higher layer, vector(packetBytes)"
vector 77 TestNetwork.switch4.eth[0].mac packetReceivedFromUpper:vector(packetBytes) ETV
attr interpolationmode none
attr source packetReceivedFromUpper
attr title "packet bytes from higher layer, vector(packetBytes)"
vector 78 TestNetwork.switch4.eth[0].mac.queue packetPushed:vector(packetBytes) ETV
attr interpolationmode none
attr title "packet pushed, vector(packetBytes)"
vector 79 TestNetwork.switch4.eth[0].mac.queue queueLength:vector ETV
attr interpolationmode sample-hold
attr source "count(packetPushed) - count(packetPopped) - count(packetRemoved) - count(packetDropped)"
attr title "queue length, vector"
vector 80 TestNetwork.switch4.eth[0].mac.queue packetPopped:vector(packetBytes) ETV
attr interpolationmode none
attr title "packet popped, vector(packetBytes)"
vector 81 TestNetwork.switch4.eth[0].mac.queue queueingTime:vector ETV
attr interpolationmode none
attr source queueingTime(packetPopped)
attr title "queueing times, vector"
attr unit s
vector 82 TestNetwork.switch4.eth[2].mac packetReceivedFromUpper:vector(packetBytes) ETV
attr interpolationmode none
attr source packetReceivedFromUpper
attr title "packet bytes from higher layer, vector(packetBytes)"
vector 83 TestNetwork.switch4.eth[2].mac.queue packetPushed:vector(packetBytes) ETV
attr interpolationmode none
attr title "packet pushed, vector(packetBytes)"
vector 84 TestNetwork.switch4.eth[2].mac.queue queueLength:vector ETV
attr interpolationmode sample-hold
attr source "count(packetPushed) - count(packetPopped) - count(packetRemoved) - count(packetDropped)"
attr title "queue length, vector"
vector 85 TestNetwork.switch4.eth[2].mac.queue packetPopped:vector(packetBytes) ETV
attr interpolationmode none
attr title "packet popped, vector(packetBytes)"
vector 86 TestNetwork.switch4.eth[2].mac.queue queueingTime:vector ETV
attr interpolationmode none
attr source queueingTime(packetPopped)
attr title "queueing times, vector"
attr unit s
vector 87 TestNetwork.switch4.eth[0].mac txPk:vector(packetBytes) ETV
attr interpolationmode none
attr source packetSentToLower
attr title "packets transmitted, vector(packetBytes)"
vector 88 TestNetwork.switch4.eth[2].mac txPk:vector(packetBytes) ETV
attr interpolationmode none
attr source packetSentToLower
attr title "packets transmitted, vector(packetBytes)"
vector 89 TestNetwork.switch3.eth[1].mac rxPkOk:vector(packetBytes) ETV
attr interpolationmode none
attr source rxPkOk
attr title "packets received OK, vector(packetBytes)"
vector 90 TestNetwork.switch3.eth[1].mac passedUpPk:vector(packetBytes) ETV
attr interpolationmode none
attr source packetSentToUpper
attr title "packets passed to higher layer, vector(packetBytes)"
vector 91 TestNetwork.switch5.eth[0].mac rxPkOk:vector(packetBytes) ETV
attr interpolationmode none
attr source rxPkOk
attr title "packets received OK, vector(packetBytes)"
vector 92 TestNetwork.switch5.eth[0].mac passedUpPk:vector(packetBytes) ETV
attr interpolationmode none
attr source packetSentToUpper
attr title "packets passed to higher layer, vector(packetBytes)"
vector 93 TestNetwork.switch7.eth[0].mac packetReceivedFromUpper:vector(packetBytes) ETV
attr interpolationmode none
attr source packetReceivedFromUpper
attr title "packet bytes from higher layer, vector(packetBytes)"
vector 94 TestNetwork.switch7.eth[0].mac.queue packetPushed:vector(packetBytes) ETV
attr interpolationmode none
attr title "packet pushed, vector(packetBytes)"
vector 95 TestNetwork.switch7.eth[0].mac.queue queueLength:vector ETV
attr interpolationmode sample-hold
attr source "count(packetPushed) - count(packetPopped) - count(packetRemoved) - count(packetDropped)"
attr title "queue length, vector"
vector 96 TestNetwork.switch7.eth[0].mac.queue packetPopped:vector(packetBytes) ETV
attr interpolationmode none
attr title "packet popped, vector(packetBytes)"
vector 97 TestNetwork.switch7.eth[0].mac.queue queueingTime:vector ETV
attr interpolationmode none
attr source queueingTime(packetPopped)
attr title "queueing times, vector"
attr unit s
vector 98 TestNetwork.switch7.eth[1].mac packetReceivedFromUpper:vector(packetBytes) ETV
attr interpolationmode none
attr source packetReceivedFromUpper
attr title "packet bytes from higher layer, vector(packetBytes)"
vector 99 TestNetwork.switch7.eth[1].mac.queue packetPushed:vector(packetBytes) ETV
attr interpolationmode none
attr title "packet pushed, vector(packetBytes)"
vector 100 TestNetwork.switch7.eth[1].mac.queue queueLength:vector ETV
attr interpolationmode sample-hold
attr source "count(packetPushed) - count(packetPopped) - count(packetRemoved) - count(packetDropped)"
attr title "queue length, vector"
vector 101 TestNetwork.switch7.eth[1].mac.queue packetPopped:vector(packetBytes) ETV
attr interpolationmode none
attr title "packet popped, vector(packetBytes)"
vector 102 TestNetwork.switch7.eth[1].mac.queue queueingTime:vector ETV
attr interpolationmode none
attr source queueingTime(packetPopped)
attr title "queueing times, vector"
attr unit s
vector 103 TestNetwork.switch7.eth[3].mac packetReceivedFromUpper:vector(packetBytes) ETV
attr interpolationmode none
attr source packetReceivedFromUpper
attr title "packet bytes from higher layer, vector(packetBytes)"
vector 104 TestNetwork.switch7.eth[3].mac.queue packetPushed:vector(packetBytes) ETV
attr interpolationmode none
attr title "packet pushed, vector(packetBytes)"
vector 105 TestNetwork.switch7.eth[3].mac.queue queueLength:vector ETV
attr interpolationmode sample-hold
attr source "count(packetPushed) - count(packetPopped) - count(packetRemoved) - count(packetDropped)"
attr title "queue length, vector"
vector 106 TestNetwork.switch7.eth[3].mac.queue packetPopped:vector(packetBytes) ETV
attr interpolationmode none
attr title "packet popped, vector(packetBytes)"
vector 107 TestNetwork.switch7.eth[3].mac.queue queueingTime:vector ETV
attr interpolationmode none
attr source queueingTime(packetPopped)
attr title "queueing times, vector"
attr unit s
vector 108 TestNetwork.switch7.eth[0].mac txPk:vector(packetBytes) ETV
attr interpolationmode none
attr source packetSentToLower
attr title "packets transmitted, vector(packetBytes)"
vector 109 TestNetwork.switch7.eth[1].mac txPk:vector(packetBytes) ETV
attr interpolationmode none
attr source packetSentToLower
attr title "packets transmitted, vector(packetBytes)"
vector 110 TestNetwork.switch7.eth[3].mac txPk:vector(packetBytes) ETV
attr interpolationmode none
attr source packetSentToLower
attr title "packets transmitted, vector(packetBytes)"
vector 111 TestNetwork.switch6.eth[2].mac rxPkOk:vector(packetBytes) ETV
attr interpolationmode none
attr source rxPkOk
attr title "packets received OK, vector(packetBytes)"
vector 112 TestNetwork.switch6.eth[2].mac passedUpPk:vector(packetBytes) ETV
attr interpolationmode none
attr source packetSentToUpper
attr title "packets passed to higher layer, vector(packetBytes)"
vector 113 TestNetwork.rsu[3].eth.mac rxPkOk:vector(packetBytes) ETV
attr interpolationmode none
attr source rxPkOk
attr title "packets received OK, vector(packetBytes)"
vector 114 TestNetwork.rsu[3].eth.mac passedUpPk:vector(packetBytes) ETV
attr interpolationmode none
attr source packetSentToUpper
attr title "packets passed to higher layer, vector(packetBytes)"
vector 115 TestNetwork.ES4.eth.mac rxPkOk:vector(packetBytes) ETV
attr interpolationmode none
attr source rxPkOk
attr title "packets received OK, vector(packetBytes)"
vector 116 TestNetwork.ES4.eth.mac passedUpPk:vector(packetBytes) ETV
attr interpolationmode none
attr source packetSentToUpper
attr title "packets passed to higher layer, vector(packetBytes)"
vector 117 TestNetwork.ES4.srv packetReceived:vector(packetBytes) ETV
attr interpolationmode none
attr source packetReceived
attr title "packets received, vector(packetBytes)"
vector 118 TestNetwork.ES4.srv packetSent:vector(packetBytes) ETV
attr interpolationmode none
attr source packetSent
attr title "packets sent, vector(packetBytes)"
vector 119 TestNetwork.ES4.llc encapPk:vector(packetBytes) ETV
attr interpolationmode none
attr source encapPk
attr title "packets encapsulated, vector(packetBytes)"
vector 120 TestNetwork.ES4.eth.mac packetReceivedFromUpper:vector(packetBytes) ETV
attr interpolationmode none
attr source packetReceivedFromUpper
attr title "packet bytes from higher layer, vector(packetBytes)"
vector 121 TestNetwork.ES4.eth.mac.queue packetPushed:vector(packetBytes) ETV
attr interpolationmode none
attr title "packet pushed, vector(packetBytes)"
vector 122 TestNetwork.ES4.eth.mac.queue queueLength:vector ETV
attr interpolationmode sample-hold
attr source "count(packetPushed) - count(packetPopped) - count(packetRemoved) - count(packetDropped)"
attr title "queue length, vector"
vector 123 TestNetwork.ES4.eth.mac.queue packetPopped:vector(packetBytes) ETV
attr interpolationmode none
attr title "packet popped, vector(packetBytes)"
vector 124 TestNetwork.ES4.eth.mac.queue queueingTime:vector ETV
attr interpolationmode none
attr source queueingTime(packetPopped)
attr title "queueing times, vector"
attr unit s
vector 125 TestNetwork.switch7.eth[2].mac packetReceivedFromUpper:vector(packetBytes) ETV
attr interpolationmode none
attr source packetReceivedFromUpper
attr title "packet bytes from higher layer, vector(packetBytes)"
vector 126 TestNetwork.switch7.eth[2].mac.queue packetPushed:vector(packetBytes) ETV
attr interpolationmode none
attr title "packet pushed, vector(packetBytes)"
vector 127 TestNetwork.switch7.eth[2].mac.queue queueLength:vector ETV
attr interpolationmode sample-hold
attr source "count(packetPushed) - count(packetPopped) - count(packetRemoved) - count(packetDropped)"
attr title "queue length, vector"
vector 128 TestNetwork.switch7.eth[2].mac.queue packetPopped:vector(packetBytes) ETV
attr interpolationmode none
attr title "packet popped, vector(packetBytes)"
vector 129 TestNetwork.switch7.eth[2].mac.queue queueingTime:vector ETV
attr interpolationmode none
attr source queueingTime(packetPopped)
attr title "queueing times, vector"
attr unit s
vector 130 TestNetwork.ES4.eth.mac txPk:vector(packetBytes) ETV
attr interpolationmode none
attr source packetSentToLower
attr title "packets transmitted, vector(packetBytes)"
vector 131 TestNetwork.switch7.eth[3].mac rxPkOk:vector(packetBytes) ETV
attr interpolationmode none
attr source rxPkOk
attr title "packets received OK, vector(packetBytes)"
vector 132 TestNetwork.switch7.eth[3].mac passedUpPk:vector(packetBytes) ETV
attr interpolationmode none
attr source packetSentToUpper
attr title "packets passed to higher layer, vector(packetBytes)"
vector 133 TestNetwork.switch7.eth[2].mac txPk:vector(packetBytes) ETV
attr interpolationmode none
attr source packetSentToLower
attr title "packets transmitted, vector(packetBytes)"
vector 134 TestNetwork.rsu[4].eth.mac rxPkOk:vector(packetBytes) ETV
attr interpolationmode none
attr source rxPkOk
attr title "packets received OK, vector(packetBytes)"
vector 135 TestNetwork.rsu[4].eth.mac passedUpPk:vector(packetBytes) ETV
attr interpolationmode none
attr source packetSentToUpper
attr title "packets passed to higher layer, vector(packetBytes)"
0	7	0	64
0	75	0.267123375889	64
1	8	0	64
1	98	0.298085809175	64
2	9	0	64
2	52	0.262764940488	64
3	10	0	64
3	146	0.369153696207	21
4	11	0	64
4	121	0.369138616207	64
5	16	0	85
5	76	0.267123375889	85
6	16	0	85
6	76	0.267123375889	85
7	16	0	1
7	16	0	0
7	76	0.267123375889	1
7	76	0.267123375889	0
8	16	0	85
8	76	0.267123375889	85
9	16	0	0
9	76	0.267123375889	0
10	17	0	85
10	99	0.298085809175	85
11	17	0	85
11	99	0.298085809175	85
12	17	0	1
12	17	0	0
12	99	0.298085809175	1
12	99	0.298085809175	0
13	17	0	85
13	99	0.298085809175	85
14	17	0	0
14	99	0.298085809175	0
15	18	0	85
15	53	0.262764940488	85
16	18	0	85
16	53	0.262764940488	85
17	18	0	1
17	18	0	0
17	53	0.262764940488	1
17	53	0.262764940488	0
18	18	0	85
18	53	0.262764940488	85
19	18	0	0
19	53	0.262764940488	0
20	19	0	85
20	148	0.369153696207	42
21	19	0	85
21	148	0.369153696207	64
22	19	0	1
22	19	0	0
22	148	0.369153696207	1
22	148	0.369153696207	0
23	19	0	85
23	148	0.369153696207	64
24	19	0	0
24	148	0.369153696207	0
25	20	0	85
25	122	0.369138616207	85
26	20	0	85
26	122	0.369138616207	85
27	20	0	1
27	20	0	0
27	122	0.369138616207	1
27	122	0.369138616207	0
28	20	0	85
28	122	0.369138616207	85
29	20	0	0
29	122	0.369138616207	0
30	26	0.00000744	85
30	78	0.267130815889	85
31	27	0.00000744	85
31	101	0.298093249175	85
32	28	0.00000744	85
32	55	0.262772380488	85
33	29	0.00000744	85
33	158	0.369160416207	64
34	30	0.00000744	85
34	124	0.369146056207	85
35	31	0.00000754	85
35	79	0.267130915889	85
36	31	0.00000754	85
36	79	0.267130915889	85
37	32	0.00000754	85
37	102	0.298093349175	85
38	32	0.00000754	85
38	102	0.298093349175	85
39	33	0.00000754	85
39	56	0.262772480488	85
40	33	0.00000754	85
40	56	0.262772480488	85
41	34	0.00000754	85
41	159	0.369160516207	64
42	34	0.00000754	85
42	159	0.369160516207	64
43	35	0.00000754	85
43	125	0.369146156207	85
44	35	0.00000754	85
44	125	0.369146156207	85
45	58	0.262772480488	85
46	58	0.262772480488	85
47	58	0.262772480488	1
47	58	0.262772480488	0
48	58	0.262772480488	85
49	58	0.262772480488	0
50	59	0.262772480488	85
51	59	0.262772480488	85
52	59	0.262772480488	1
52	59	0.262772480488	0
53	59	0.262772480488	85
54	59	0.262772480488	0
55	64	0.262779920488	85
56	65	0.262779920488	85
57	66	0.262780020488	85
58	66	0.262780020488	85
59	67	0.262780020488	85
60	67	0.262780020488	85
61	81	0.267130915889	85
62	81	0.267130915889	85
63	81	0.267130915889	1
63	81	0.267130915889	0
64	81	0.267130915889	85
65	81	0.267130915889	0
66	82	0.267130915889	85
67	82	0.267130915889	85
68	82	0.267130915889	1
68	82	0.267130915889	0
69	82	0.267130915889	85
70	82	0.267130915889	0
71	87	0.267138355889	85
72	88	0.267138355889	85
73	89	0.267138455889	85
74	89	0.267138455889	85
75	90	0.267138455889	85
76	90	0.267138455889	85
77	104	0.298093349175	85
78	104	0.298093349175	85
79	104	0.298093349175	1
79	104	0.298093349175	0
80	104	0.298093349175	85
81	104	0.298093349175	0
82	105	0.298093349175	85
83	105	0.298093349175	85
84	105	0.298093349175	1
84	105	0.298093349175	0
85	105	0.298093349175	85
86	105	0.298093349175	0
87	110	0.298100789175	85
88	111	0.298100789175	85
89	112	0.298100889175	85
90	112	0.298100889175	85
91	113	0.298100889175	85
92	113	0.298100889175	85
93	127	0.369146156207	85
94	127	0.369146156207	85
95	127	0.369146156207	1
95	127	0.369146156207	0
96	127	0.369146156207	85
97	127	0.369146156207	0
98	128	0.369146156207	85
99	128	0.369146156207	85
100	128	0.369146156207	1
100	128	0.369146156207	0
101	128	0.369146156207	85
102	128	0.369146156207	0
103	129	0.369146156207	85
104	129	0.369146156207	85
105	129	0.369146156207	1
105	129	0.369146156207	0
106	129	0.369146156207	85
107	129	0.369146156207	0
108	135	0.369153596207	85
109	136	0.369153596207	85
110	137	0.369153596207	85
111	138	0.369153696207	85
112	138	0.369153696207	85
113	139	0.369153696207	85
114	139	0.369153696207	85
115	140	0.369153696207	85
116	140	0.369153696207	85
117	145	0.369153696207	64
118	145	0.369153696207	64
119	147	0.369153696207	64
120	149	0.369153696207	85
121	149	0.369153696207	85
122	149	0.369153696207	1
122	149	0.369153696207	0
123	149	0.369153696207	85
124	149	0.369153696207	0
125	161	0.369160516207	64
125	168	0.369162196207	85
126	161	0.369160516207	64
126	168	0.369162196207	85
127	161	0.369160516207	1
127	161	0.369160516207	0
127	168	0.369162196207	1
127	171	0.369166276207	0
128	161	0.369160516207	64
128	171	0.369166276207	85
129	161	0.369160516207	0
129	171	0.369166276207	4.08e-006
130	165	0.369162096207	85
131	166	0.369162196207	85
132	166	0.369162196207	85
133	171	0.369166276207	64
133	178	0.369174676207	85
134	172	0.369166376207	64
135	172	0.369166376207	64
134	179	0.369174776207	85
135	179	0.369174776207	85
3	185	0.383554552845	64
4	210	0.383569632845	21
4	211	0.383569632845	64
20	186	0.383554552845	85
21	186	0.383554552845	85
22	186	0.383554552845	1
22	186	0.383554552845	0
23	186	0.383554552845	85
24	186	0.383554552845	0
25	213	0.383569632845	42
25	214	0.383569632845	85
26	213	0.383569632845	64
26	214	0.383569632845	85
27	213	0.383569632845	1
27	213	0.383569632845	0
27	214	0.383569632845	1
27	224	0.383576352845	0
28	213	0.383569632845	64
28	224	0.383576352845	85
29	213	0.383569632845	0
29	224	0.383576352845	6.72e-006
33	188	0.383561992845	85
34	224	0.383576352845	64
34	245	0.383584752845	85
41	189	0.383562092845	85
42	189	0.383562092845	85
43	225	0.383576452845	64
43	246	0.383584852845	85
44	225	0.383576452845	64
44	246	0.383584852845	85
93	191	0.383562092845	85
94	191	0.383562092845	85
95	191	0.383562092845	1
95	191	0.383562092845	0
96	191	0.383562092845	85
97	191	0.383562092845	0
98	227	0.383576452845	64
98	235	0.383578132845	85
98	248	0.383584852845	85
99	227	0.383576452845	64
99	235	0.383578132845	85
99	248	0.383584852845	85
100	227	0.383576452845	1
100	227	0.383576452845	0
100	235	0.383578132845	1
100	238	0.383582212845	0
100	248	0.383584852845	1
100	251	0.383590612845	0
101	227	0.383576452845	64
101	238	0.383582212845	85
101	251	0.383590612845	85
102	227	0.383576452845	0
102	238	0.383582212845	4.08e-006
102	251	0.383590612845	5.76e-006
103	193	0.383562092845	85
104	193	0.383562092845	85
105	193	0.383562092845	1
105	193	0.383562092845	0
106	193	0.383562092845	85
107	193	0.383562092845	0
108	199	0.383569532845	85
109	238	0.383582212845	64
109	251	0.383590612845	85
110	201	0.383569532845	85
111	202	0.383569632845	85
112	202	0.383569632845	85
113	239	0.383582312845	64
113	252	0.383590712845	85
114	239	0.383582312845	64
114	252	0.383590712845	85
115	204	0.383569632845	85
116	204	0.383569632845	85
117	209	0.383569632845	64
118	209	0.383569632845	64
119	212	0.383569632845	64
120	215	0.383569632845	85
121	215	0.383569632845	85
122	215	0.383569632845	1
122	215	0.383569632845	0
123	215	0.383569632845	85
124	215	0.383569632845	0
125	192	0.383562092845	85
126	192	0.383562092845	85
127	192	0.383562092845	1
127	192	0.383562092845	0
128	192	0.383562092845	85
129	192	0.383562092845	0
130	232	0.383578032845	85
131	233	0.383578132845	85
132	233	0.383578132845	85
133	200	0.383569532845	85
134	203	0.383569632845	85
135	203	0.383569632845	85
3	255	0.383590712845	64
20	256	0.383590712845	85
21	256	0.383590712845	85
22	256	0.383590712845	1
22	256	0.383590712845	0
23	256	0.383590712845	85
24	256	0.383590712845	0
33	262	0.383599112845	85
109	261	0.383599012845	85
113	263	0.383599112845	85
114	263	0.383599112845	85
2	279	0.5180865789	64
15	280	0.5180865789	85
16	280	0.5180865789	85
17	280	0.5180865789	1
17	280	0.5180865789	0
18	280	0.5180865789	85
19	280	0.5180865789	0
41	266	0.383599212845	85
42	266	0.383599212845	85
125	268	0.383599212845	85
126	268	0.383599212845	85
127	268	0.383599212845	1
127	268	0.383599212845	0
128	268	0.383599212845	85
129	268	0.383599212845	0
133	272	0.383606652845	85
134	273	0.383606752845	85
135	273	0.383606752845	85
vector 136 TestNetwork.switch4.eth[1].mac packetReceivedFromUpper:vector(packetBytes) ETV
attr interpolationmode none
attr source packetReceivedFromUpper
attr title "packet bytes from higher layer, vector(packetBytes)"
vector 137 TestNetwork.switch4.eth[1].mac.queue packetPushed:vector(packetBytes) ETV
attr interpolationmode none
attr title "packet pushed, vector(packetBytes)"
vector 138 TestNetwork.switch4.eth[1].mac.queue queueLength:vector ETV
attr interpolationmode sample-hold
attr source "count(packetPushed) - count(packetPopped) - count(packetRemoved) - count(packetDropped)"
attr title "queue length, vector"
vector 139 TestNetwork.switch4.eth[1].mac.queue packetPopped:vector(packetBytes) ETV
attr interpolationmode none
attr title "packet popped, vector(packetBytes)"
vector 140 TestNetwork.switch4.eth[1].mac.queue queueingTime:vector ETV
attr interpolationmode none
attr source queueingTime(packetPopped)
attr title "queueing times, vector"
attr unit s
vector 141 TestNetwork.switch6.eth[1].mac packetReceivedFromUpper:vector(packetBytes) ETV
attr interpolationmode none
attr source packetReceivedFromUpper
attr title "packet bytes from higher layer, vector(packetBytes)"
vector 142 TestNetwork.switch6.eth[1].mac.queue packetPushed:vector(packetBytes) ETV
attr interpolationmode none
attr title "packet pushed, vector(packetBytes)"
vector 143 TestNetwork.switch6.eth[1].mac.queue queueLength:vector ETV
attr interpolationmode sample-hold
attr source "count(packetPushed) - count(packetPopped) - count(packetRemoved) - count(packetDropped)"
attr title "queue length, vector"
vector 144 TestNetwork.switch6.eth[1].mac.queue packetPopped:vector(packetBytes) ETV
attr interpolationmode none
attr title "packet popped, vector(packetBytes)"
vector 145 TestNetwork.switch6.eth[1].mac.queue queueingTime:vector ETV
attr interpolationmode none
attr source queueingTime(packetPopped)
attr title "queueing times, vector"
attr unit s
vector 146 TestNetwork.switch6.eth[2].mac packetReceivedFromUpper:vector(packetBytes) ETV
attr interpolationmode none
attr source packetReceivedFromUpper
attr title "packet bytes from higher layer, vector(packetBytes)"
vector 147 TestNetwork.switch6.eth[2].mac.queue packetPushed:vector(packetBytes) ETV
attr interpolationmode none
attr title "packet pushed, vector(packetBytes)"
vector 148 TestNetwork.switch6.eth[2].mac.queue queueLength:vector ETV
attr interpolationmode sample-hold
attr source "count(packetPushed) - count(packetPopped) - count(packetRemoved) - count(packetDropped)"
attr title "queue length, vector"
vector 149 TestNetwork.switch6.eth[2].mac.queue packetPopped:vector(packetBytes) ETV
attr interpolationmode none
attr title "packet popped, vector(packetBytes)"
vector 150 TestNetwork.switch6.eth[2].mac.queue queueingTime:vector ETV
attr interpolationmode none
attr source queueingTime(packetPopped)
attr title "queueing times, vector"
attr unit s
vector 151 TestNetwork.switch4.eth[1].mac txPk:vector(packetBytes) ETV
attr interpolationmode none
attr source packetSentToLower
attr title "packets transmitted, vector(packetBytes)"
vector 152 TestNetwork.switch6.eth[1].mac txPk:vector(packetBytes) ETV
attr interpolationmode none
attr source packetSentToLower
attr title "packets transmitted, vector(packetBytes)"
vector 153 TestNetwork.switch6.eth[2].mac txPk:vector(packetBytes) ETV
attr interpolationmode none
attr source packetSentToLower
attr title "packets transmitted, vector(packetBytes)"
vector 154 TestNetwork.rsu[1].eth.mac rxPkOk:vector(packetBytes) ETV
attr interpolationmode none
attr source rxPkOk
attr title "packets received OK, vector(packetBytes)"
vector 155 TestNetwork.rsu[1].eth.mac passedUpPk:vector(packetBytes) ETV
attr interpolationmode none
attr source packetSentToUpper
attr title "packets passed to higher layer, vector(packetBytes)"
vector 156 TestNetwork.ES3.eth.mac rxPkOk:vector(packetBytes) ETV
attr interpolationmode none
attr source rxPkOk
attr title "packets received OK, vector(packetBytes)"
vector 157 TestNetwork.ES3.eth.mac passedUpPk:vector(packetBytes) ETV
attr interpolationmode none
attr source packetSentToUpper
attr title "packets passed to higher layer, vector(packetBytes)"
vector 158 TestNetwork.switch7.eth[0].mac rxPkOk:vector(packetBytes) ETV
attr interpolationmode none
attr source rxPkOk
attr title "packets received OK, vector(packetBytes)"
vector 159 TestNetwork.switch7.eth[0].mac passedUpPk:vector(packetBytes) ETV
attr interpolationmode none
attr source packetSentToUpper
attr title "packets passed to higher layer, vector(packetBytes)"
vector 160 TestNetwork.ES3.srv packetReceived:vector(packetBytes) ETV
attr interpolationmode none
attr source packetReceived
attr title "packets received, vector(packetBytes)"
vector 161 TestNetwork.ES3.srv packetSent:vector(packetBytes) ETV
attr interpolationmode none
attr source packetSent
attr title "packets sent, vector(packetBytes)"
32	282	0.5180940189	85
39	283	0.5180941189	85
40	283	0.5180941189	85
45	285	0.5180941189	85
46	285	0.5180941189	85
47	285	0.5180941189	1
47	285	0.5180941189	0
48	285	0.5180941189	85
49	285	0.5180941189	0
50	286	0.5180941189	85
51	286	0.5180941189	85
52	286	0.5180941189	1
52	286	0.5180941189	0
53	286	0.5180941189	85
54	286	0.5180941189	0
55	291	0.5181015589	85
56	292	0.5181015589	85
57	293	0.5181016589	85
58	293	0.5181016589	85
59	294	0.5181016589	85
60	294	0.5181016589	85
77	297	0.5181016589	85
78	297	0.5181016589	85
79	297	0.5181016589	1
79	297	0.5181016589	0
80	297	0.5181016589	85
81	297	0.5181016589	0
87	309	0.5181090989	85
89	313	0.5181091989	85
90	313	0.5181091989	85
136	298	0.5181016589	85
137	298	0.5181016589	85
138	298	0.5181016589	1
138	298	0.5181016589	0
139	298	0.5181016589	85
140	298	0.5181016589	0
141	299	0.5181016589	85
142	299	0.5181016589	85
143	299	0.5181016589	1
143	299	0.5181016589	0
144	299	0.5181016589	85
145	299	0.5181016589	0
146	300	0.5181016589	85
147	300	0.5181016589	85
148	300	0.5181016589	1
148	300	0.5181016589	0
149	300	0.5181016589	85
150	300	0.5181016589	0
151	310	0.5181090989	85
152	311	0.5181090989	85
153	312	0.5181090989	85
154	314	0.5181091989	85
155	314	0.5181091989	85
156	315	0.5181091989	85
157	315	0.5181091989	85
158	316	0.5181091989	85
159	316	0.5181091989	85
160	322	0.5181091989	64
161	322	0.5181091989	64
vector 162 TestNetwork.ES3.llc encapPk:vector(packetBytes) ETV
attr interpolationmode none
attr source encapPk
attr title "packets encapsulated, vector(packetBytes)"
vector 163 TestNetwork.ES3.eth.mac packetReceivedFromUpper:vector(packetBytes) ETV
attr interpolationmode none
attr source packetReceivedFromUpper
attr title "packet bytes from higher layer, vector(packetBytes)"
vector 164 TestNetwork.ES3.eth.mac.queue packetPushed:vector(packetBytes) ETV
attr interpolationmode none
attr title "packet pushed, vector(packetBytes)"
vector 165 TestNetwork.ES3.eth.mac.queue queueLength:vector ETV
attr interpolationmode sample-hold
attr source "count(packetPushed) - count(packetPopped) - count(packetRemoved) - count(packetDropped)"
attr title "queue length, vector"
vector 166 TestNetwork.ES3.eth.mac.queue packetPopped:vector(packetBytes) ETV
attr interpolationmode none
attr title "packet popped, vector(packetBytes)"
vector 167 TestNetwork.ES3.eth.mac.queue queueingTime:vector ETV
attr interpolationmode none
attr source queueingTime(packetPopped)
attr title "queueing times, vector"
attr unit s
vector 168 TestNetwork.ES3.eth.mac txPk:vector(packetBytes) ETV
attr interpolationmode none
attr source packetSentToLower
attr title "packets transmitted, vector(packetBytes)"
vector 169 TestNetwork.switch6.eth[1].mac rxPkOk:vector(packetBytes) ETV
attr interpolationmode none
attr source rxPkOk
attr title "packets received OK, vector(packetBytes)"
vector 170 TestNetwork.switch6.eth[1].mac passedUpPk:vector(packetBytes) ETV
attr interpolationmode none
attr source packetSentToUpper
attr title "packets passed to higher layer, vector(packetBytes)"
vector 171 TestNetwork.switch6.eth[0].mac packetReceivedFromUpper:vector(packetBytes) ETV
attr interpolationmode none
attr source packetReceivedFromUpper
attr title "packet bytes from higher layer, vector(packetBytes)"
vector 172 TestNetwork.switch6.eth[0].mac.queue packetPushed:vector(packetBytes) ETV
attr interpolationmode none
attr title "packet pushed, vector(packetBytes)"
vector 173 TestNetwork.switch6.eth[0].mac.queue queueLength:vector ETV
attr interpolationmode sample-hold
attr source "count(packetPushed) - count(packetPopped) - count(packetRemoved) - count(packetDropped)"
attr title "queue length, vector"
vector 174 TestNetwork.switch6.eth[0].mac.queue packetPopped:vector(packetBytes) ETV
attr interpolationmode none
attr title "packet popped, vector(packetBytes)"
vector 175 TestNetwork.switch6.eth[0].mac.queue queueingTime:vector ETV
attr interpolationmode none
attr source queueingTime(packetPopped)
attr title "queueing times, vector"
attr unit s
vector 176 TestNetwork.switch5.eth[1].mac packetReceivedFromUpper:vector(packetBytes) ETV
attr interpolationmode none
attr source packetReceivedFromUpper
attr title "packet bytes from higher layer, vector(packetBytes)"
vector 177 TestNetwork.switch5.eth[1].mac.queue packetPushed:vector(packetBytes) ETV
attr interpolationmode none
attr title "packet pushed, vector(packetBytes)"
vector 178 TestNetwork.switch5.eth[1].mac.queue queueLength:vector ETV
attr interpolationmode sample-hold
attr source "count(packetPushed) - count(packetPopped) - count(packetRemoved) - count(packetDropped)"
attr title "queue length, vector"
vector 179 TestNetwork.switch5.eth[1].mac.queue packetPopped:vector(packetBytes) ETV
attr interpolationmode none
attr title "packet popped, vector(packetBytes)"
vector 180 TestNetwork.switch5.eth[1].mac.queue queueingTime:vector ETV
attr interpolationmode none
attr source queueingTime(packetPopped)
attr title "queueing times, vector"
attr unit s
vector 181 TestNetwork.switch6.eth[0].mac txPk:vector(packetBytes) ETV
attr interpolationmode none
attr source packetSentToLower
attr title "packets transmitted, vector(packetBytes)"
vector 182 TestNetwork.switch5.eth[2].mac rxPkOk:vector(packetBytes) ETV
attr interpolationmode none
attr source rxPkOk
attr title "packets received OK, vector(packetBytes)"
vector 183 TestNetwork.switch5.eth[2].mac passedUpPk:vector(packetBytes) ETV
attr interpolationmode none
attr source packetSentToUpper
attr title "packets passed to higher layer, vector(packetBytes)"
vector 184 TestNetwork.switch5.eth[1].mac txPk:vector(packetBytes) ETV
attr interpolationmode none
attr source packetSentToLower
attr title "packets transmitted, vector(packetBytes)"
vector 185 TestNetwork.rsu[2].eth.mac rxPkOk:vector(packetBytes) ETV
attr interpolationmode none
attr source rxPkOk
attr title "packets received OK, vector(packetBytes)"
vector 186 TestNetwork.rsu[2].eth.mac passedUpPk:vector(packetBytes) ETV
attr interpolationmode none
attr source packetSentToUpper
attr title "packets passed to higher layer, vector(packetBytes)"
1	323	0.5181091989	21
10	325	0.5181091989	42
11	325	0.5181091989	64
12	325	0.5181091989	1
12	325	0.5181091989	0
13	325	0.5181091989	64
14	325	0.5181091989	0
31	337	0.5181159189	64
37	338	0.5181160189	64
38	338	0.5181160189	64
82	340	0.5181160189	64
83	340	0.5181160189	64
84	340	0.5181160189	1
84	340	0.5181160189	0
85	340	0.5181160189	64
86	340	0.5181160189	0
88	351	0.5181217789	64
91	352	0.5181218789	64
92	352	0.5181218789	64
162	324	0.5181091989	64
163	326	0.5181091989	85
164	326	0.5181091989	85
165	326	0.5181091989	1
165	326	0.5181091989	0
166	326	0.5181091989	85
167	326	0.5181091989	0
168	344	0.5181175989	85
169	345	0.5181176989	85
170	345	0.5181176989	85
171	347	0.5181176989	85
172	347	0.5181176989	85
173	347	0.5181176989	1
173	347	0.5181176989	0
174	347	0.5181176989	85
175	347	0.5181176989	0
176	354	0.5181218789	64
176	361	0.5181252389	85
177	354	0.5181218789	64
177	361	0.5181252389	85
178	354	0.5181218789	1
178	354	0.5181218789	0
178	361	0.5181252389	1
178	364	0.5181276389	0
179	354	0.5181218789	64
179	364	0.5181276389	85
180	354	0.5181218789	0
180	364	0.5181276389	2.4e-006
181	358	0.5181251389	85
182	359	0.5181252389	85
183	359	0.5181252389	85
184	364	0.5181276389	64
184	371	0.5181360389	85
185	365	0.5181277389	64
185	372	0.5181361389	85
186	365	0.5181277389	64
186	372	0.5181361389	85
vector 187 TestNetwork.switch2.eth[1].mac packetReceivedFromUpper:vector(packetBytes) ETV
attr interpolationmode none
attr source packetReceivedFromUpper
attr title "packet bytes from higher layer, vector(packetBytes)"
vector 188 TestNetwork.switch2.eth[1].mac.queue packetPushed:vector(packetBytes) ETV
attr interpolationmode none
attr title "packet pushed, vector(packetBytes)"
vector 189 TestNetwork.switch2.eth[1].mac.queue queueLength:vector ETV
attr interpolationmode sample-hold
attr source "count(packetPushed) - count(packetPopped) - count(packetRemoved) - count(packetDropped)"
attr title "queue length, vector"
vector 190 TestNetwork.switch2.eth[1].mac.queue packetPopped:vector(packetBytes) ETV
attr interpolationmode none
attr title "packet popped, vector(packetBytes)"
vector 191 TestNetwork.switch2.eth[1].mac.queue queueingTime:vector ETV
attr interpolationmode none
attr source queueingTime(packetPopped)
attr title "queueing times, vector"
attr unit s
vector 192 TestNetwork.switch2.eth[2].mac packetReceivedFromUpper:vector(packetBytes) ETV
attr interpolationmode none
attr source packetReceivedFromUpper
attr title "packet bytes from higher layer, vector(packetBytes)"
vector 193 TestNetwork.switch2.eth[2].mac.queue packetPushed:vector(packetBytes) ETV
attr interpolationmode none
attr title "packet pushed, vector(packetBytes)"
vector 194 TestNetwork.switch2.eth[2].mac.queue queueLength:vector ETV
attr interpolationmode sample-hold
attr source "count(packetPushed) - count(packetPopped) - count(packetRemoved) - count(packetDropped)"
attr title "queue length, vector"
vector 195 TestNetwork.switch2.eth[2].mac.queue packetPopped:vector(packetBytes) ETV
attr interpolationmode none
attr title "packet popped, vector(packetBytes)"
vector 196 TestNetwork.switch2.eth[2].mac.queue queueingTime:vector ETV
attr interpolationmode none
attr source queueingTime(packetPopped)
attr title "queueing times, vector"
attr unit s
vector 197 TestNetwork.switch3.eth[1].mac packetReceivedFromUpper:vector(packetBytes) ETV
attr interpolationmode none
attr source packetReceivedFromUpper
attr title "packet bytes from higher layer, vector(packetBytes)"
vector 198 TestNetwork.switch3.eth[1].mac.queue packetPushed:vector(packetBytes) ETV
attr interpolationmode none
attr title "packet pushed, vector(packetBytes)"
vector 199 TestNetwork.switch3.eth[1].mac.queue queueLength:vector ETV
attr interpolationmode sample-hold
attr source "count(packetPushed) - count(packetPopped) - count(packetRemoved) - count(packetDropped)"
attr title "queue length, vector"
vector 200 TestNetwork.switch3.eth[1].mac.queue packetPopped:vector(packetBytes) ETV
attr interpolationmode none
attr title "packet popped, vector(packetBytes)"
vector 201 TestNetwork.switch3.eth[1].mac.queue queueingTime:vector ETV
attr interpolationmode none
attr source queueingTime(packetPopped)
attr title "queueing times, vector"
attr unit s
vector 202 TestNetwork.switch2.eth[1].mac txPk:vector(packetBytes) ETV
attr interpolationmode none
attr source packetSentToLower
attr title "packets transmitted, vector(packetBytes)"
vector 203 TestNetwork.switch2.eth[2].mac txPk:vector(packetBytes) ETV
attr interpolationmode none
attr source packetSentToLower
attr title "packets transmitted, vector(packetBytes)"
vector 204 TestNetwork.switch3.eth[1].mac txPk:vector(packetBytes) ETV
attr interpolationmode none
attr source packetSentToLower
attr title "packets transmitted, vector(packetBytes)"
vector 205 TestNetwork.ES1.eth.mac rxPkOk:vector(packetBytes) ETV
attr interpolationmode none
attr source rxPkOk
attr title "packets received OK, vector(packetBytes)"
vector 206 TestNetwork.ES1.eth.mac passedUpPk:vector(packetBytes) ETV
attr interpolationmode none
attr source packetSentToUpper
attr title "packets passed to higher layer, vector(packetBytes)"
vector 207 TestNetwork.ES2.eth.mac rxPkOk:vector(packetBytes) ETV
attr interpolationmode none
attr source rxPkOk
attr title "packets received OK, vector(packetBytes)"
vector 208 TestNetwork.ES2.eth.mac passedUpPk:vector(packetBytes) ETV
attr interpolationmode none
attr source packetSentToUpper
attr title "packets passed to higher layer, vector(packetBytes)"
vector 209 TestNetwork.switch4.eth[0].mac rxPkOk:vector(packetBytes) ETV
attr interpolationmode none
attr source rxPkOk
attr title "packets received OK, vector(packetBytes)"
vector 210 TestNetwork.switch4.eth[0].mac passedUpPk:vector(packetBytes) ETV
attr interpolationmode none
attr source packetSentToUpper
attr title "packets passed to higher layer, vector(packetBytes)"
vector 211 TestNetwork.ES1.srv packetReceived:vector(packetBytes) ETV
attr interpolationmode none
attr source packetReceived
attr title "packets received, vector(packetBytes)"
vector 212 TestNetwork.ES1.srv packetSent:vector(packetBytes) ETV
attr interpolationmode none
attr source packetSent
attr title "packets sent, vector(packetBytes)"
vector 213 TestNetwork.ES2.srv packetReceived:vector(packetBytes) ETV
attr interpolationmode none
attr source packetReceived
attr title "packets received, vector(packetBytes)"
vector 214 TestNetwork.ES2.srv packetSent:vector(packetBytes) ETV
attr interpolationmode none
attr source packetSent
attr title "packets sent, vector(packetBytes)"
vector 215 TestNetwork.ES1.llc encapPk:vector(packetBytes) ETV
attr interpolationmode none
attr source encapPk
attr title "packets encapsulated, vector(packetBytes)"
vector 216 TestNetwork.ES2.llc encapPk:vector(packetBytes) ETV
attr interpolationmode none
attr source encapPk
attr title "packets encapsulated, vector(packetBytes)"
vector 217 TestNetwork.ES1.eth.mac packetReceivedFromUpper:vector(packetBytes) ETV
attr interpolationmode none
attr source packetReceivedFromUpper
attr title "packet bytes from higher layer, vector(packetBytes)"
vector 218 TestNetwork.ES1.eth.mac.queue packetPushed:vector(packetBytes) ETV
attr interpolationmode none
attr title "packet pushed, vector(packetBytes)"
vector 219 TestNetwork.ES1.eth.mac.queue queueLength:vector ETV
attr interpolationmode sample-hold
attr source "count(packetPushed) - count(packetPopped) - count(packetRemoved) - count(packetDropped)"
attr title "queue length, vector"
vector 220 TestNetwork.ES1.eth.mac.queue packetPopped:vector(packetBytes) ETV
attr interpolationmode none
attr title "packet popped, vector(packetBytes)"
vector 221 TestNetwork.ES1.eth.mac.queue queueingTime:vector ETV
attr interpolationmode none
attr source queueingTime(packetPopped)
attr title "queueing times, vector"
attr unit s
vector 222 TestNetwork.ES2.eth.mac packetReceivedFromUpper:vector(packetBytes) ETV
attr interpolationmode none
attr source packetReceivedFromUpper
attr title "packet bytes from higher layer, vector(packetBytes)"
vector 223 TestNetwork.ES2.eth.mac.queue packetPushed:vector(packetBytes) ETV
attr interpolationmode none
attr title "packet pushed, vector(packetBytes)"
vector 224 TestNetwork.ES2.eth.mac.queue queueLength:vector ETV
attr interpolationmode sample-hold
attr source "count(packetPushed) - count(packetPopped) - count(packetRemoved) - count(packetDropped)"
attr title "queue length, vector"
vector 225 TestNetwork.ES2.eth.mac.queue packetPopped:vector(packetBytes) ETV
attr interpolationmode none
attr title "packet popped, vector(packetBytes)"
vector 226 TestNetwork.ES2.eth.mac.queue queueingTime:vector ETV
attr interpolationmode none
attr source queueingTime(packetPopped)
attr title "queueing times, vector"
attr unit s
vector 227 TestNetwork.ES1.eth.mac txPk:vector(packetBytes) ETV
attr interpolationmode none
attr source packetSentToLower
attr title "packets transmitted, vector(packetBytes)"
vector 228 TestNetwork.ES2.eth.mac txPk:vector(packetBytes) ETV
attr interpolationmode none
attr source packetSentToLower
attr title "packets transmitted, vector(packetBytes)"
vector 229 TestNetwork.switch2.eth[1].mac rxPkOk:vector(packetBytes) ETV
attr interpolationmode none
attr source rxPkOk
attr title "packets received OK, vector(packetBytes)"
vector 230 TestNetwork.switch2.eth[1].mac passedUpPk:vector(packetBytes) ETV
attr interpolationmode none
attr source packetSentToUpper
attr title "packets passed to higher layer, vector(packetBytes)"
vector 231 TestNetwork.switch2.eth[2].mac rxPkOk:vector(packetBytes) ETV
attr interpolationmode none
attr source rxPkOk
attr title "packets received OK, vector(packetBytes)"
vector 232 TestNetwork.switch2.eth[2].mac passedUpPk:vector(packetBytes) ETV
attr interpolationmode none
attr source packetSentToUpper
attr title "packets passed to higher layer, vector(packetBytes)"
vector 233 TestNetwork.switch2.eth[0].mac packetReceivedFromUpper:vector(packetBytes) ETV
attr interpolationmode none
attr source packetReceivedFromUpper
attr title "packet bytes from higher layer, vector(packetBytes)"
vector 234 TestNetwork.switch2.eth[0].mac.queue packetPushed:vector(packetBytes) ETV
attr interpolationmode none
attr title "packet pushed, vector(packetBytes)"
vector 235 TestNetwork.switch2.eth[0].mac.queue queueLength:vector ETV
attr interpolationmode sample-hold
attr source "count(packetPushed) - count(packetPopped) - count(packetRemoved) - count(packetDropped)"
attr title "queue length, vector"
vector 236 TestNetwork.switch2.eth[0].mac.queue packetPopped:vector(packetBytes) ETV
attr interpolationmode none
attr title "packet popped, vector(packetBytes)"
vector 237 TestNetwork.switch2.eth[0].mac.queue queueingTime:vector ETV
attr interpolationmode none
attr source queueingTime(packetPopped)
attr title "queueing times, vector"
attr unit s
vector 238 TestNetwork.switch2.eth[0].mac txPk:vector(packetBytes) ETV
attr interpolationmode none
attr source packetSentToLower
attr title "packets transmitted, vector(packetBytes)"
vector 239 TestNetwork.switch1.eth[1].mac rxPkOk:vector(packetBytes) ETV
attr interpolationmode none
attr source rxPkOk
attr title "packets received OK, vector(packetBytes)"
vector 240 TestNetwork.switch1.eth[1].mac passedUpPk:vector(packetBytes) ETV
attr interpolationmode none
attr source packetSentToUpper
attr title "packets passed to higher layer, vector(packetBytes)"
vector 241 TestNetwork.switch1.eth[0].mac packetReceivedFromUpper:vector(packetBytes) ETV
attr interpolationmode none
attr source packetReceivedFromUpper
attr title "packet bytes from higher layer, vector(packetBytes)"
vector 242 TestNetwork.switch1.eth[0].mac.queue packetPushed:vector(packetBytes) ETV
attr interpolationmode none
attr title "packet pushed, vector(packetBytes)"
vector 243 TestNetwork.switch1.eth[0].mac.queue queueLength:vector ETV
attr interpolationmode sample-hold
attr source "count(packetPushed) - count(packetPopped) - count(packetRemoved) - count(packetDropped)"
attr title "queue length, vector"
vector 244 TestNetwork.switch1.eth[0].mac.queue packetPopped:vector(packetBytes) ETV
attr interpolationmode none
attr title "packet popped, vector(packetBytes)"
vector 245 TestNetwork.switch1.eth[0].mac.queue queueingTime:vector ETV
attr interpolationmode none
attr source queueingTime(packetPopped)
attr title "queueing times, vector"
attr unit s
vector 246 TestNetwork.switch1.eth[0].mac txPk:vector(packetBytes) ETV
attr interpolationmode none
attr source packetSentToLower
attr title "packets transmitted, vector(packetBytes)"
vector 247 TestNetwork.rsu[0].eth.mac rxPkOk:vector(packetBytes) ETV
attr interpolationmode none
attr source rxPkOk
attr title "packets received OK, vector(packetBytes)"
vector 248 TestNetwork.rsu[0].eth.mac passedUpPk:vector(packetBytes) ETV
attr interpolationmode none
attr source packetSentToUpper
attr title "packets passed to higher layer, vector(packetBytes)"
0	378	0.578474488778	64
5	379	0.578474488778	85
6	379	0.578474488778	85
7	379	0.578474488778	1
7	379	0.578474488778	0
8	379	0.578474488778	85
9	379	0.578474488778	0
30	381	0.578481928778	85
35	382	0.578482028778	85
36	382	0.578482028778	85
61	384	0.578482028778	85
62	384	0.578482028778	85
63	384	0.578482028778	1
63	384	0.578482028778	0
64	384	0.578482028778	85
65	384	0.578482028778	0
66	385	0.578482028778	85
67	385	0.578482028778	85
68	385	0.578482028778	1
68	385	0.578482028778	0
69	385	0.578482028778	85
70	385	0.578482028778	0
71	390	0.578489468778	85
72	391	0.578489468778	85
73	392	0.578489568778	85
74	392	0.578489568778	85
75	393	0.578489568778	85
76	393	0.578489568778	85
187	396	0.578489568778	85
188	396	0.578489568778	85
189	396	0.578489568778	1
189	396	0.578489568778	0
190	396	0.578489568778	85
191	396	0.578489568778	0
192	397	0.578489568778	85
193	397	0.578489568778	85
194	397	0.578489568778	1
194	397	0.578489568778	0
195	397	0.578489568778	85
196	397	0.578489568778	0
197	398	0.578489568778	85
198	398	0.578489568778	85
199	398	0.578489568778	1
199	398	0.578489568778	0
200	398	0.578489568778	85
201	398	0.578489568778	0
202	406	0.578497008778	85
203	407	0.578497008778	85
204	408	0.578497008778	85
205	409	0.578497108778	85
206	409	0.578497108778	85
207	410	0.578497108778	85
208	410	0.578497108778	85
209	411	0.578497108778	85
210	411	0.578497108778	85
211	415	0.578497108778	64
212	415	0.578497108778	64
213	416	0.578497108778	64
214	416	0.578497108778	64
215	417	0.578497108778	64
216	418	0.578497108778	64
217	419	0.578497108778	85
218	419	0.578497108778	85
219	419	0.578497108778	1
219	419	0.578497108778	0
220	419	0.578497108778	85
221	419	0.578497108778	0
222	420	0.578497108778	85
223	420	0.578497108778	85
224	420	0.578497108778	1
224	420	0.578497108778	0
225	420	0.578497108778	85
226	420	0.578497108778	0
227	429	0.578505508778	85
228	430	0.578505508778	85
229	431	0.578505608778	85
230	431	0.578505608778	85
231	432	0.578505608778	85
232	432	0.578505608778	85
233	435	0.578505608778	85
233	436	0.578505608778	85
234	435	0.578505608778	85
234	436	0.578505608778	85
235	435	0.578505608778	1
235	435	0.578505608778	0
235	436	0.578505608778	1
235	442	0.578513048778	0
236	435	0.578505608778	85
236	442	0.578513048778	85
237	435	0.578505608778	0
237	442	0.578513048778	7.44e-006
238	442	0.578513048778	85
238	454	0.578521448778	85
239	443	0.578513148778	85
240	443	0.578513148778	85
241	445	0.578513148778	85
242	445	0.578513148778	85
243	445	0.578513148778	1
243	445	0.578513148778	0
244	445	0.578513148778	85
245	445	0.578513148778	0
246	450	0.578520588778	85
247	451	0.578520688778	85
248	451	0.578520688778	85
1	470	0.602838596855	64
239	455	0.578521548778	85
240	455	0.578521548778	85
241	458	0.578521548778	85
242	458	0.578521548778	85
243	458	0.578521548778	1
243	458	0.578521548778	0
244	458	0.578521548778	85
245	458	0.578521548778	0
246	463	0.578528988778	85
247	464	0.578529088778	85
248	464	0.578529088778	85
vector 249 TestNetwork.switch3.eth[0].mac packetReceivedFromUpper:vector(packetBytes) ETV
attr interpolationmode none
attr source packetReceivedFromUpper
attr title "packet bytes from higher layer, vector(packetBytes)"
vector 250 TestNetwork.switch3.eth[0].mac.queue packetPushed:vector(packetBytes) ETV
attr interpolationmode none
attr title "packet pushed, vector(packetBytes)"
vector 251 TestNetwork.switch3.eth[0].mac.queue queueLength:vector ETV
attr interpolationmode sample-hold
attr source "count(packetPushed) - count(packetPopped) - count(packetRemoved) - count(packetDropped)"
attr title "queue length, vector"
vector 252 TestNetwork.switch3.eth[0].mac.queue packetPopped:vector(packetBytes) ETV
attr interpolationmode none
attr title "packet popped, vector(packetBytes)"
vector 253 TestNetwork.switch3.eth[0].mac.queue queueingTime:vector ETV
attr interpolationmode none
attr source queueingTime(packetPopped)
attr title "queueing times, vector"
attr unit s
vector 254 TestNetwork.switch3.eth[0].mac txPk:vector(packetBytes) ETV
attr interpolationmode none
attr source packetSentToLower
attr title "packets transmitted, vector(packetBytes)"
vector 255 TestNetwork.switch1.eth[2].mac rxPkOk:vector(packetBytes) ETV
attr interpolationmode none
attr source rxPkOk
attr title "packets received OK, vector(packetBytes)"
vector 256 TestNetwork.switch1.eth[2].mac passedUpPk:vector(packetBytes) ETV
attr interpolationmode none
attr source packetSentToUpper
attr title "packets passed to higher layer, vector(packetBytes)"
1	558	0.602891516855	64
2	508	0.602861216855	21
2	509	0.602861216855	64
10	471	0.602838596855	85
10	559	0.602891516855	85
11	471	0.602838596855	85
11	559	0.602891516855	85
12	471	0.602838596855	1
12	471	0.602838596855	0
12	559	0.602891516855	1
12	559	0.602891516855	0
13	471	0.602838596855	85
13	559	0.602891516855	85
14	471	0.602838596855	0
14	559	0.602891516855	0
15	510	0.602861216855	42
15	511	0.602861216855	85
16	510	0.602861216855	64
16	511	0.602861216855	85
17	510	0.602861216855	1
17	510	0.602861216855	0
17	511	0.602861216855	1
17	519	0.602867936855	0
18	510	0.602861216855	64
18	519	0.602867936855	85
19	510	0.602861216855	0
19	519	0.602867936855	6.72e-006
31	473	0.602846036855	85
32	519	0.602867936855	64
32	534	0.602876336855	85
37	474	0.602846136855	85
38	474	0.602846136855	85
39	520	0.602868036855	64
39	535	0.602876436855	85
40	520	0.602868036855	64
40	535	0.602876436855	85
45	522	0.602868036855	64
45	537	0.602876436855	85
46	522	0.602868036855	64
46	537	0.602876436855	85
47	522	0.602868036855	1
47	522	0.602868036855	0
47	537	0.602876436855	1
47	537	0.602876436855	0
48	522	0.602868036855	64
48	537	0.602876436855	85
49	522	0.602868036855	0
49	537	0.602876436855	0
50	490	0.602853676855	85
51	490	0.602853676855	85
52	490	0.602853676855	1
52	490	0.602853676855	0
53	490	0.602853676855	85
54	490	0.602853676855	0
55	527	0.602873796855	64
55	547	0.602883876855	85
56	500	0.602861116855	85
57	528	0.602873896855	64
57	548	0.602883976855	85
58	528	0.602873896855	64
58	548	0.602883976855	85
59	503	0.602861216855	85
60	503	0.602861216855	85
77	476	0.602846136855	85
78	476	0.602846136855	85
79	476	0.602846136855	1
79	476	0.602846136855	0
80	476	0.602846136855	85
81	476	0.602846136855	0
82	477	0.602846136855	85
83	477	0.602846136855	85
84	477	0.602846136855	1
84	477	0.602846136855	0
85	477	0.602846136855	85
86	477	0.602846136855	0
87	482	0.602853576855	85
88	483	0.602853576855	85
89	484	0.602853676855	85
90	484	0.602853676855	85
91	485	0.602853676855	85
92	485	0.602853676855	85
136	530	0.602873896855	64
136	550	0.602883976855	85
137	530	0.602873896855	64
137	550	0.602883976855	85
138	530	0.602873896855	1
138	530	0.602873896855	0
138	550	0.602883976855	1
138	550	0.602883976855	0
139	530	0.602873896855	64
139	550	0.602883976855	85
140	530	0.602873896855	0
140	550	0.602883976855	0
151	541	0.602879656855	64
151	554	0.602891416855	85
154	542	0.602879756855	64
154	555	0.602891516855	85
155	542	0.602879756855	64
155	555	0.602891516855	85
176	489	0.602853676855	85
177	489	0.602853676855	85
178	489	0.602853676855	1
178	489	0.602853676855	0
179	489	0.602853676855	85
180	489	0.602853676855	0
184	499	0.602861116855	85
185	502	0.602861216855	85
186	502	0.602861216855	85
249	488	0.602853676855	85
250	488	0.602853676855	85
251	488	0.602853676855	1
251	488	0.602853676855	0
252	488	0.602853676855	85
253	488	0.602853676855	0
254	498	0.602861116855	85
255	501	0.602861216855	85
256	501	0.602861216855	85
0	626	0.602922636855	21
0	627	0.602922636855	64
1	715	0.602955436855	64
5	629	0.602922636855	42
5	630	0.602922636855	85
6	629	0.602922636855	64
6	630	0.602922636855	85
7	629	0.602922636855	1
7	629	0.602922636855	0
7	630	0.602922636855	1
7	642	0.602929356855	0
8	629	0.602922636855	64
8	642	0.602929356855	85
9	629	0.602922636855	0
9	642	0.602929356855	6.72e-006
10	716	0.602955436855	85
11	716	0.602955436855	85
12	716	0.602955436855	1
12	716	0.602955436855	0
13	716	0.602955436855	85
14	716	0.602955436855	0
30	642	0.602929356855	64
30	664	0.602937756855	85
31	563	0.602899916855	85
31	722	0.602963836855	85
35	643	0.602929456855	64
35	665	0.602937856855	85
36	643	0.602929456855	64
36	665	0.602937856855	85
37	564	0.602900016855	85
38	564	0.602900016855	85
45	672	0.602938676855	85
46	672	0.602938676855	85
47	672	0.602938676855	1
47	672	0.602938676855	0
48	672	0.602938676855	85
49	672	0.602938676855	0
50	580	0.602907556855	85
51	580	0.602907556855	85
52	580	0.602907556855	1
52	580	0.602907556855	0
53	580	0.602907556855	85
54	580	0.602907556855	0
55	690	0.602946116855	85
56	590	0.602914996855	85
57	691	0.602946216855	85
58	691	0.602946216855	85
59	593	0.602915096855	85
60	593	0.602915096855	85
61	598	0.602915096855	85
62	598	0.602915096855	85
63	598	0.602915096855	1
63	598	0.602915096855	0
64	598	0.602915096855	85
65	598	0.602915096855	0
66	645	0.602929456855	64
66	667	0.602937856855	85
67	645	0.602929456855	64
67	667	0.602937856855	85
68	645	0.602929456855	1
68	645	0.602929456855	0
68	667	0.602937856855	1
68	667	0.602937856855	0
69	645	0.602929456855	64
69	667	0.602937856855	85
70	645	0.602929456855	0
70	667	0.602937856855	0
71	613	0.602922536855	85
72	657	0.602935216855	64
72	685	0.602945296855	85
73	617	0.602922636855	85
74	617	0.602922636855	85
75	658	0.602935316855	64
75	686	0.602945396855	85
76	658	0.602935316855	64
76	686	0.602945396855	85
77	566	0.602900016855	85
78	566	0.602900016855	85
79	566	0.602900016855	1
79	566	0.602900016855	0
80	566	0.602900016855	85
81	566	0.602900016855	0
82	567	0.602900016855	85
83	567	0.602900016855	85
84	567	0.602900016855	1
84	567	0.602900016855	0
85	567	0.602900016855	85
86	567	0.602900016855	0
87	572	0.602907456855	85
88	573	0.602907456855	85
89	574	0.602907556855	85
90	574	0.602907556855	85
91	575	0.602907556855	85
92	575	0.602907556855	85
136	681	0.602941176855	64
136	693	0.602946216855	85
136	708	0.602952936855	85
137	681	0.602941176855	64
137	693	0.602946216855	85
137	708	0.602952936855	85
138	681	0.602941176855	1
138	681	0.602941176855	0
138	693	0.602946216855	1
138	696	0.602946936855	0
138	708	0.602952936855	1
138	711	0.602955336855	0
139	681	0.602941176855	64
139	696	0.602946936855	85
139	711	0.602955336855	85
140	681	0.602941176855	0
140	696	0.602946936855	7.2e-007
140	711	0.602955336855	2.4e-006
141	600	0.602915096855	85
142	600	0.602915096855	85
143	600	0.602915096855	1
143	600	0.602915096855	0
144	600	0.602915096855	85
145	600	0.602915096855	0
146	601	0.602915096855	85
147	601	0.602915096855	85
148	601	0.602915096855	1
148	601	0.602915096855	0
149	601	0.602915096855	85
150	601	0.602915096855	0
151	696	0.602946936855	64
151	711	0.602955336855	85
151	721	0.602963736855	85
152	614	0.602922536855	85
153	615	0.602922536855	85
154	697	0.602947036855	64
154	712	0.602955436855	85
154	723	0.602963836855	85
155	697	0.602947036855	64
155	712	0.602955436855	85
155	723	0.602963836855	85
156	618	0.602922636855	85
157	618	0.602922636855	85
158	619	0.602922636855	85
159	619	0.602922636855	85
160	625	0.602922636855	64
161	625	0.602922636855	64
162	628	0.602922636855	64
163	631	0.602922636855	85
164	631	0.602922636855	85
165	631	0.602922636855	1
165	631	0.602922636855	0
166	631	0.602922636855	85
167	631	0.602922636855	0
168	650	0.602931036855	85
169	651	0.602931136855	85
170	651	0.602931136855	85
171	653	0.602931136855	85
172	653	0.602931136855	85
173	653	0.602931136855	1
173	653	0.602931136855	0
174	653	0.602931136855	85
175	653	0.602931136855	0
176	579	0.602907556855	85
177	579	0.602907556855	85
178	579	0.602907556855	1
178	579	0.602907556855	0
179	579	0.602907556855	85
180	579	0.602907556855	0
181	669	0.602938576855	85
182	670	0.602938676855	85
183	670	0.602938676855	85
184	589	0.602914996855	85
185	592	0.602915096855	85
186	592	0.602915096855	85
197	660	0.602935316855	64
197	688	0.602945396855	85
198	660	0.602935316855	64
198	688	0.602945396855	85
199	660	0.602935316855	1
199	660	0.602935316855	0
199	688	0.602945396855	1
199	688	0.602945396855	0
200	660	0.602935316855	64
200	688	0.602945396855	85
201	660	0.602935316855	0
201	688	0.602945396855	0
204	678	0.602941076855	64
204	705	0.602952836855	85
209	679	0.602941176855	64
209	706	0.602952936855	85
210	679	0.602941176855	64
210	706	0.602952936855	85
241	597	0.602915096855	85
242	597	0.602915096855	85
243	597	0.602915096855	1
243	597	0.602915096855	0
244	597	0.602915096855	85
245	597	0.602915096855	0
246	612	0.602922536855	85
247	616	0.602922636855	85
248	616	0.602922636855	85
249	578	0.602907556855	85
250	578	0.602907556855	85
251	578	0.602907556855	1
251	578	0.602907556855	0
252	578	0.602907556855	85
253	578	0.602907556855	0
254	588	0.602914996855	85
255	591	0.602915096855	85
256	591	0.602915096855	85
37	726	0.602963936855	85
38	726	0.602963936855	85
82	728	0.602963936855	85
83	728	0.602963936855	85
84	728	0.602963936855	1
84	728	0.602963936855	0
85	728	0.602963936855	85
86	728	0.602963936855	0
3	865	0.738688015719	64
4	779	0.685794228946	64
4	846	0.685840428946	64
20	866	0.738688015719	85
21	866	0.738688015719	85
22	866	0.738688015719	1
22	866	0.738688015719	0
23	866	0.738688015719	85
24	866	0.738688015719	0
25	780	0.685794228946	85
25	847	0.685840428946	85
26	780	0.685794228946	85
26	847	0.685840428946	85
27	780	0.685794228946	1
27	780	0.685794228946	0
27	847	0.685840428946	1
27	847	0.685840428946	0
28	780	0.685794228946	85
28	847	0.685840428946	85
29	780	0.685794228946	0
29	847	0.685840428946	0
33	868	0.738695455719	85
34	782	0.685801668946	85
34	851	0.685848828946	85
41	869	0.738695555719	85
42	869	0.738695555719	85
43	783	0.685801768946	85
43	852	0.685848928946	85
44	783	0.685801768946	85
44	852	0.685848928946	85
88	732	0.602971376855	85
91	733	0.602971476855	85
92	733	0.602971476855	85
93	785	0.685801768946	85
93	871	0.738695555719	85
94	785	0.685801768946	85
94	871	0.738695555719	85
95	785	0.685801768946	1
95	785	0.685801768946	0
95	871	0.738695555719	1
95	871	0.738695555719	0
96	785	0.685801768946	85
96	871	0.738695555719	85
97	785	0.685801768946	0
97	871	0.738695555719	0
98	786	0.685801768946	85
98	854	0.685848928946	85
99	786	0.685801768946	85
99	854	0.685848928946	85
100	786	0.685801768946	1
100	786	0.685801768946	0
100	854	0.685848928946	1
100	854	0.685848928946	0
101	786	0.685801768946	85
101	854	0.685848928946	85
102	786	0.685801768946	0
102	854	0.685848928946	0
103	787	0.685801768946	85
103	873	0.738695555719	85
104	787	0.685801768946	85
104	873	0.738695555719	85
105	787	0.685801768946	1
105	787	0.685801768946	0
105	873	0.738695555719	1
105	873	0.738695555719	0
106	787	0.685801768946	85
106	873	0.738695555719	85
107	787	0.685801768946	0
107	873	0.738695555719	0
108	793	0.685809208946	85
108	879	0.738702995719	85
109	794	0.685809208946	85
109	858	0.685856368946	85
110	795	0.685809208946	85
110	881	0.738702995719	85
111	796	0.685809308946	85
111	882	0.738703095719	85
112	796	0.685809308946	85
112	882	0.738703095719	85
113	797	0.685809308946	85
113	859	0.685856468946	85
114	797	0.685809308946	85
114	859	0.685856468946	85
115	798	0.685809308946	85
115	884	0.738703095719	85
116	798	0.685809308946	85
116	884	0.738703095719	85
117	805	0.685809308946	64
117	891	0.738703095719	64
125	838	0.685832888946	85
125	872	0.738695555719	85
126	838	0.685832888946	85
126	872	0.738695555719	85
127	838	0.685832888946	1
127	838	0.685832888946	0
127	872	0.738695555719	1
127	872	0.738695555719	0
128	838	0.685832888946	85
128	872	0.738695555719	85
129	838	0.685832888946	0
129	872	0.738695555719	0
133	842	0.685840328946	85
133	880	0.738702995719	85
134	843	0.685840428946	85
134	883	0.738703095719	85
135	843	0.685840428946	85
135	883	0.738703095719	85
141	803	0.685809308946	85
141	889	0.738703095719	85
142	803	0.685809308946	85
142	889	0.738703095719	85
143	803	0.685809308946	1
143	803	0.685809308946	0
143	889	0.738703095719	1
143	889	0.738703095719	0
144	803	0.685809308946	85
144	889	0.738703095719	85
145	803	0.685809308946	0
145	889	0.738703095719	0
146	831	0.685825348946	85
146	917	0.738719135719	85
147	831	0.685825348946	85
147	917	0.738719135719	85
148	831	0.685825348946	1
148	831	0.685825348946	0
148	917	0.738719135719	1
148	917	0.738719135719	0
149	831	0.685825348946	85
149	917	0.738719135719	85
150	831	0.685825348946	0
150	917	0.738719135719	0
152	815	0.685816748946	85
152	901	0.738710535719	85
153	835	0.685832788946	85
156	817	0.685816848946	85
156	903	0.738710635719	85
157	817	0.685816848946	85
157	903	0.738710635719	85
158	836	0.685832888946	85
159	836	0.685832888946	85
160	820	0.685816848946	64
160	906	0.738710635719	64
161	820	0.685816848946	64
161	906	0.738710635719	64
162	821	0.685816848946	64
162	907	0.738710635719	64
163	822	0.685816848946	85
163	908	0.738710635719	85
164	822	0.685816848946	85
164	908	0.738710635719	85
165	822	0.685816848946	1
165	822	0.685816848946	0
165	908	0.738710635719	1
165	908	0.738710635719	0
166	822	0.685816848946	85
166	908	0.738710635719	85
167	822	0.685816848946	0
167	908	0.738710635719	0
168	828	0.685825248946	85
168	914	0.738719035719	85
169	829	0.685825348946	85
169	915	0.738719135719	85
170	829	0.685825348946	85
170	915	0.738719135719	85
171	802	0.685809308946	85
171	888	0.738703095719	85
172	802	0.685809308946	85
172	888	0.738703095719	85
173	802	0.685809308946	1
173	802	0.685809308946	0
173	888	0.738703095719	1
173	888	0.738703095719	0
174	802	0.685809308946	85
174	888	0.738703095719	85
175	802	0.685809308946	0
175	888	0.738703095719	0
176	735	0.602971476855	85
177	735	0.602971476855	85
178	735	0.602971476855	1
178	735	0.602971476855	0
179	735	0.602971476855	85
180	735	0.602971476855	0
181	814	0.685816748946	85
181	900	0.738710535719	85
182	816	0.685816848946	85
182	902	0.738710635719	85
183	816	0.685816848946	85
183	902	0.738710635719	85
184	739	0.602978916855	85
185	740	0.602979016855	85
186	740	0.602979016855	85
98	924	0.738726675719	85
99	924	0.738726675719	85
100	924	0.738726675719	1
100	924	0.738726675719	0
101	924	0.738726675719	85
102	924	0.738726675719	0
109	928	0.738734115719	85
113	929	0.738734215719	85
114	929	0.738734215719	85
153	921	0.738726575719	85
158	922	0.738726675719	85
[...]
242	35645	64.567041017246	85
242	37621	71.783264884385	85
242	38523	72.441439595746	85
242	40906	80.941447035746	85
243	32293	59.754413882955	1
243	32293	59.754413882955	0
243	32473	59.754468482955	1
243	32473	59.754468482955	0
243	33341	62.83865378115	1
243	33341	62.83865378115	0
243	34724	63.476134861252	1
243	34724	63.476134861252	0
243	35645	64.567041017246	1
243	35645	64.567041017246	0
243	37621	71.783264884385	1
243	37621	71.783264884385	0
243	38523	72.441439595746	1
243	38523	72.441439595746	0
243	40906	80.941447035746	1
243	40906	80.941447035746	0
244	32293	59.754413882955	85
244	32473	59.754468482955	85
244	33341	62.83865378115	85
244	34724	63.476134861252	85
244	35645	64.567041017246	85
244	37621	71.783264884385	85
244	38523	72.441439595746	85
244	40906	80.941447035746	85
245	32293	59.754413882955	0
245	32473	59.754468482955	0
245	33341	62.83865378115	0
245	34724	63.476134861252	0
245	35645	64.567041017246	0
245	37621	71.783264884385	0
245	38523	72.441439595746	0
245	40906	80.941447035746	0
246	32310	59.754421322955	85
246	32498	59.754475922955	85
246	33392	62.83866122115	85
246	34776	63.476142301252	85
246	35662	64.567048457246	85
246	37672	71.783272324385	85
246	38574	72.441447035746	85
246	40957	80.941454475746	85
247	32311	59.754421422955	85
247	32499	59.754476022955	85
247	33393	62.83866132115	85
247	34777	63.476142401252	85
247	35663	64.567048557246	85
247	37673	71.783272424385	85
247	38575	72.441447135746	85
247	40958	80.941454575746	85
248	32311	59.754421422955	85
248	32499	59.754476022955	85
248	33393	62.83866132115	85
248	34777	63.476142401252	85
248	35663	64.567048557246	85
248	37673	71.783272424385	85
248	38575	72.441447135746	85
248	40958	80.941454575746	85
249	32451	59.754460942955	85
249	33297	62.83864624115	85
249	34675	63.476127321252	85
249	37577	71.783257344385	85
249	38479	72.441432055746	85
249	40862	80.941439495746	85
249	41820	81.342414797819	85
250	32451	59.754460942955	85
250	33297	62.83864624115	85
250	34675	63.476127321252	85
250	37577	71.783257344385	85
250	38479	72.441432055746	85
250	40862	80.941439495746	85
250	41820	81.342414797819	85
251	32451	59.754460942955	1
251	32451	59.754460942955	0
251	33297	62.83864624115	1
251	33297	62.83864624115	0
251	34675	63.476127321252	1
251	34675	63.476127321252	0
251	37577	71.783257344385	1
251	37577	71.783257344385	0
251	38479	72.441432055746	1
251	38479	72.441432055746	0
251	40862	80.941439495746	1
251	40862	80.941439495746	0
251	41820	81.342414797819	1
251	41820	81.342414797819	0
252	32451	59.754460942955	85
252	33297	62.83864624115	85
252	34675	63.476127321252	85
252	37577	71.783257344385	85
252	38479	72.441432055746	85
252	40862	80.941439495746	85
252	41820	81.342414797819	85
253	32451	59.754460942955	0
253	33297	62.83864624115	0
253	34675	63.476127321252	0
253	37577	71.783257344385	0
253	38479	72.441432055746	0
253	40862	80.941439495746	0
253	41820	81.342414797819	0
254	32470	59.754468382955	85
254	33338	62.83865368115	85
254	34721	63.476134761252	85
254	37618	71.783264784385	85
254	38520	72.441439495746	85
254	40903	80.941446935746	85
255	32471	59.754468482955	85
255	33339	62.83865378115	85
255	34722	63.476134861252	85
255	37619	71.783264884385	85
255	38521	72.441439595746	85
255	40904	80.941447035746	85
256	32471	59.754468482955	85
256	33339	62.83865378115	85
256	34722	63.476134861252	85
256	37619	71.783264884385	85
256	38521	72.441439595746	85
256	40904	80.941447035746	85
257	31660	58	822.41153720787
257	32119	59	836.98615578892
257	32720	60	851.68825120858
257	32844	61	867.06004431526
257	33031	62	881.79742519805
257	33729	63	896.0432903769
257	35534	64	910.38329527376
257	35825	65	924.60955584235
257	36011	66	939.20001615576
257	36136	67	954.2475264717
257	36541	68	969.55875915027
257	36724	69	984.40346453954
257	36789	70	998.80656931869
257	36973	71	1014.1301204352
257	38011	72	1028.7289785057
257	39126	73	1044.1687294337
257	39308	74	1058.5617005624
257	39434	75	1072.8398554601
257	39617	76	1087.6680233508
257	39742	77	1102.940201477
257	40350	78	1118.1546148641
257	40417	79	1132.8694016109
257	40539	80	1148.1608146821
257	41357	81	1162.7575026558
258	31660	58	26.6
258	32119	59	26.6
258	32720	60	26.6
258	32844	61	26.6
258	33031	62	26.6
258	33729	63	26.6
258	35534	64	26.6
258	35825	65	26.6
258	36011	66	26.6
258	36136	67	26.6
258	36541	68	26.6
258	36724	69	26.6
258	36789	70	26.6
258	36973	71	26.6
258	38011	72	26.6
258	39126	73	26.6
258	39308	74	26.6
258	39434	75	26.6
258	39617	76	26.6
258	39742	77	26.6
258	40350	78	26.6
258	40417	79	26.6
258	40539	80	26.6
258	41357	81	26.6
259	31660	58	14.717204292697
259	32119	59	14.57461858105
259	32720	60	14.702095419654
259	32844	61	15.371793106684
259	33031	62	14.737380882792
259	33729	63	14.24586517885
259	35534	64	14.340004896858
259	35825	65	14.226260568594
259	36011	66	14.590460313411
259	36136	67	15.04751031594
259	36541	68	15.311232678566
259	36724	69	14.844705389274
259	36789	70	14.403104779144
259	36973	71	15.323551116531
259	38011	72	14.59885807044
259	39126	73	15.439750928009
259	39308	74	14.392971128734
259	39434	75	14.278154897663
259	39617	76	14.828167890707
259	39742	77	15.27217812624
259	40350	78	15.214413387115
259	40417	79	14.714786746769
259	40539	80	15.291413071189
259	41357	81	14.596687973753
260	31660	58	-0.48861825186759
260	32119	59	-0.14258571164683
260	32720	60	0.12747683860362
260	32844	61	0.66969768702984
260	33031	62	-0.63441222389229
260	33729	63	-0.4915157039417
260	35534	64	0.094139718008229
260	35825	65	-0.11374432826415
260	36011	66	0.36419974481687
260	36136	67	0.45705000252929
260	36541	68	0.26372236262541
260	36724	69	-0.46652728929184
260	36789	70	-0.44160061012954
260	36973	71	0.92044633738697
260	38011	72	-0.72469304609112
260	39126	73	0.84089285756927
260	39308	74	-1.0467797992751
260	39434	75	-0.11481623107102
260	39617	76	0.55001299304422
260	39742	77	0.44401023553219
260	40350	78	-0.057764739124103
260	40417	79	-0.49962664034683
260	40539	80	0.57662632442079
260	41357	81	-0.69472509743646
261	31660	58	0.973
261	32119	59	1.5982485509558
261	32720	60	2.5644747966569
261	32844	61	4.6680403159772
261	33031	62	0.973
261	33729	63	0.973
261	35534	64	2.3995116246513
261	35825	65	1.6722766476709
261	36011	66	3.381412163471
261	36136	67	3.8081115274019
261	36541	68	3.15334257458
261	36724	69	0.973
261	36789	70	0.973
261	36973	71	5.5807864742478
261	38011	72	0.973
261	39126	73	5.3237705338095
261	39308	74	0.973
261	39434	75	1.6725903439761
261	39617	76	4.0920171792305
261	39742	77	3.8100121042051
261	40350	78	1.9574795056564
261	40417	79	0.973
261	40539	80	4.3029640215356
261	41357	81	0.973
262	31660	58	735.00279702553
262	32119	59	748.70657612603
262	32720	60	762.29466003954
262	32844	61	776.46889771375
262	33031	62	790.31354128252
262	33729	63	804.02781172623
262	35534	64	818.40617335286
262	35825	65	831.80867768759
262	36011	66	845.78837836218
262	36136	67	859.42186937467
262	36541	68	872.80783200752
262	36724	69	886.5696092702
262	36789	70	900.00720068988
262	36973	71	914.03986710328
262	38011	72	928.11659382508
262	39126	73	941.55230150166
262	39308	74	955.81434115796
262	39434	75	969.4273581281
262	39617	76	983.35294920379
262	39742	77	997.89087557182
262	40350	78	1011.3159354215
262	40417	79	1024.9622014028
262	40539	80	1038.8741719212
262	41357	81	1053.1269159622
263	31660	58	26.6
263	32119	59	26.6
263	32720	60	26.6
263	32844	61	26.6
263	33031	62	26.6
263	33729	63	26.6
263	35534	64	26.6
263	35825	65	26.6
263	36011	66	26.6
263	36136	67	26.6
263	36541	68	26.6
263	36724	69	26.6
263	36789	70	26.6
263	36973	71	26.6
263	38011	72	26.6
263	39126	73	26.6
263	39308	74	26.6
263	39434	75	26.6
263	39617	76	26.6
263	39742	77	26.6
263	40350	78	26.6
263	40417	79	26.6
263	40539	80	26.6
263	41357	81	26.6
264	31660	58	13.944676922366
264	32119	59	13.703779100498
264	32720	60	13.588083913514
264	32844	61	14.174237674206
264	33031	62	13.844643568771
264	33729	63	13.714270443713
264	35534	64	14.378361626632
264	35825	65	13.402504334726
264	36011	66	13.979700674593
264	36136	67	13.633491012488
264	36541	68	13.385962632845
264	36724	69	13.76177726268
264	36789	70	13.437591419682
264	36973	71	14.032666413404
264	38011	72	14.076726721797
264	39126	73	13.435707676584
264	39308	74	14.262039656296
264	39434	75	13.61301697014
264	39617	76	13.925591075687
264	39742	77	14.53792636803
264	40350	78	13.42505984971
264	40417	79	13.646265981241
264	40539	80	13.911970518447
264	41357	81	14.252744040998
265	31660	58	0.21985947745852
265	32119	59	-0.24089782186784
265	32720	60	-0.11569518698379
265	32844	61	0.5861537606921
265	33031	62	-0.32959410543553
265	33729	63	-0.13037312505767
265	35534	64	0.66409118291922
265	35825	65	-0.97585729190614
265	36011	66	0.57719633986708
265	36136	67	-0.34620966210496
265	36541	68	-0.24752837964334
265	36724	69	0.37581462983508
265	36789	70	-0.32418584299739
265	36973	71	0.59507499372121
265	38011	72	0.044060308393091
265	39126	73	-0.64101904521231
265	39308	74	0.82633197971154
265	39434	75	-0.64902268615551
265	39617	76	0.31257410554681
265	39742	77	0.61233529234305
265	40350	78	-1.1128665183205
265	40417	79	0.22120613153093
265	40539	80	0.26570453720633
265	41357	81	0.34077352255117
266	31660	58	2.772060159615
266	32119	59	1.2132139017695
266	32720	60	1.6183836079058
266	32844	61	4.0591316632534
266	33031	62	0.973
266	33729	63	1.5789568548491
266	35534	64	4.379411303179
266	35825	65	0.973
266	36011	66	3.9814040975334
266	36136	67	0.973
266	36541	68	1.1787834655845
266	36724	69	3.2610571614377
266	36789	70	0.973
266	36973	71	4.0546698372883
266	38011	72	2.1962137343932
266	39126	73	0.973
266	39308	74	4.9062184409004
266	39434	75	0.973
266	39617	76	3.0802575830248
266	39742	77	4.2405563887176
266	40350	78	0.973
266	40417	79	2.7305422002557
266	40539	80	2.9206996123894
266	41357	81	3.2355449342311
267	31660	58	683.13750736387
267	32119	59	697.06921277546
267	32720	60	710.81790718386
267	32844	61	725.00391484783
267	33031	62	738.56338573184
267	33729	63	752.45218303154
267	35534	64	766.28044631497
267	35825	65	780.2480968244
267	36011	66	794.42389558843
267	36136	67	808.11996538183
267	36541	68	821.29749521965
267	36724	69	835.38668716289
267	36789	70	848.64326623105
267	36973	71	862.90617084532
267	38011	72	876.62265907757
267	39126	73	890.45360786454
267	39308	74	904.74447327515
267	39434	75	918.07556796968
267	39617	76	932.31102230439
267	39742	77	946.39483345036
267	40350	78	960.25196998481
267	40417	79	973.78241166473
267	40539	80	987.28058345257
267	41357	81	1000.2965618548
268	31660	58	26.6
268	32119	59	26.6
268	32720	60	26.6
268	32844	61	26.6
268	33031	62	26.6
268	33729	63	26.6
268	35534	64	26.6
268	35825	65	26.6
268	36011	66	26.6
268	36136	67	26.6
268	36541	68	26.6
268	36724	69	26.6
268	36789	70	26.6
268	36973	71	26.6
268	38011	72	26.6
268	39126	73	26.6
268	39308	74	26.6
268	39434	75	26.6
268	39617	76	26.6
268	39742	77	26.6
268	40350	78	26.6
268	40417	79	26.6
268	40539	80	26.6
268	41357	81	26.6
269	31660	58	14.281142555755
269	32119	59	13.93170541159
269	32720	60	13.748694408402
269	32844	61	14.186007663976
269	33031	62	13.559470884009
269	33729	63	13.8887972997
269	35534	64	13.828263283424
269	35825	65	13.967650509436
269	36011	66	14.175798764029
269	36136	67	13.696069793399
269	36541	68	13.177529837816
269	36724	69	14.08919194324
269	36789	70	13.25657906816
269	36973	71	14.262904614276
269	38011	72	13.71648823225
269	39126	73	13.830948786969
269	39308	74	14.290865410604
269	39434	75	13.33109469453
269	39617	76	14.235454334711
269	39742	77	14.083811145971
269	40350	78	13.857136534453
269	40417	79	13.530441679918
269	40539	80	13.498171787845
269	41357	81	13.015978402221
270	31660	58	0.48837891898584
270	32119	59	-0.34943714416586
270	32720	60	-0.18301100318786
270	32844	61	0.43731325557455
270	33031	62	-0.62653677996714
270	33729	63	0.32932641569059
270	35534	64	-0.060534016275779
270	35825	65	0.13938722601161
270	36011	66	0.20814825459383
270	36136	67	-0.4797289706301
270	36541	68	-0.5185399555834
270	36724	69	0.91166210542433
270	36789	70	-0.83261287508067
270	36973	71	1.0063255461166
270	38011	72	-0.54641638202593
270	39126	73	0.11446055471897
270	39308	74	0.45991662363522
270	39434	75	-0.95977071607486
270	39617	76	0.90435964018106
270	39742	77	-0.15164318874013
270	40350	78	-0.22667461151723
270	40417	79	-0.32669485453516
270	40539	80	-0.032269892073236
270	41357	81	-0.4821933856234
271	31660	58	3.7488707703535
271	32119	59	0.973
271	32720	60	1.4069224914432
271	32844	61	3.5531579371533
271	33031	62	0.973
271	33729	63	3.1298121131559
271	35534	64	1.8196121468077
271	35825	65	2.5047397856253
271	36011	66	2.7681086977677
271	36136	67	0.973
271	36541	68	0.973
271	36724	69	5.1435703509329
271	36789	70	0.973
271	36973	71	5.5251838686572
271	38011	72	0.973
271	39126	73	2.403147030353
271	39308	74	3.6530071561172
271	39434	75	0.973
271	39617	76	5.1658387164702
271	39742	77	1.53276344215
271	40350	78	1.2672789525197
271	40417	79	0.973
271	40539	80	1.8833702910375
271	41357	81	0.973
272	31660	58	632.46416108952
272	32119	59	646.18961246139
272	32720	60	659.15017687771
272	32844	61	672.51177475748
272	33031	62	686.57061440039
272	33729	63	700.11232270036
272	35534	64	714.08843706055
272	35825	65	727.14293713601
272	36011	66	741.11604959053
272	36136	67	753.9201007516
272	36541	68	767.97382581657
272	36724	69	781.91541210424
272	36789	70	795.48314862731
272	36973	71	809.4957838048
272	38011	72	823.05223809162
272	39126	73	835.88661239068
272	39308	74	848.99477944815
272	39434	75	862.87421313215
272	39617	76	876.53608474556
272	39742	77	889.60682999714
272	40350	78	902.48202658565
272	40417	79	916.54318824934
272	40539	80	930.58025943776
272	41357	81	943.46833350027
273	31660	58	26.6
273	32119	59	26.6
273	32720	60	26.6
273	32844	61	26.6
273	33031	62	26.6
273	33729	63	26.6
273	35534	64	26.6
273	35825	65	26.6
273	36011	66	26.6
273	36136	67	26.6
273	36541	68	26.6
273	36724	69	26.6
273	36789	70	26.6
273	36973	71	26.6
273	38011	72	26.6
273	39126	73	26.6
273	39308	74	26.6
273	39434	75	26.6
273	39617	76	26.6
273	39742	77	26.6
273	40350	78	26.6
273	40417	79	26.6
273	40539	80	26.6
273	41357	81	26.6
274	31660	58	13.491380419864
274	32119	59	13.725451371868
274	32720	60	12.960564416323
274	32844	61	13.361597879769
274	33031	62	14.058839642911
274	33729	63	13.541708299962
274	35534	64	13.976114360199
274	35825	65	13.054500075455
274	36011	66	13.973112454524
274	36136	67	12.804051161071
274	36541	68	14.053725064967
274	36724	69	13.941586287671
274	36789	70	13.567736523065
274	36973	71	14.012635177492
274	38011	72	13.55645428682
274	39126	73	12.834374299066
274	39308	74	13.108167057463
274	39434	75	13.879433684007
274	39617	76	13.661871613401
274	39742	77	13.070745251586
274	40350	78	12.875196588507
274	40417	79	14.061161663688
274	40539	80	14.037071188425
274	41357	81	12.888074062511
275	31660	58	-0.060160287795588
275	32119	59	0.23407095200382
275	32720	60	-0.76488695554435
275	32844	61	0.40103346344549
275	33031	62	0.69724176314194
275	33729	63	-0.51713134294841
275	35534	64	0.43440606023651
275	35825	65	-0.92161428474355
275	36011	66	0.91861237906851
275	36136	67	-1.169061293453
275	36541	68	1.2496739038965
275	36724	69	-0.11213877729606
275	36789	70	-0.37384976460598
275	36973	71	0.44489865442738
275	38011	72	-0.45618089067284
275	39126	73	-0.72207998775411
275	39308	74	0.27379275839776
275	39434	75	0.77126662654337
275	39617	76	-0.21756207060534
275	39742	77	-0.59112636181526
275	40350	78	-0.19554866307881
275	40417	79	1.1859650751809
275	40539	80	-0.024090475263074
275	41357	81	-1.1489971259143
276	31660	58	1.7920692729318
276	32119	59	2.7852486203275
276	32720	60	0.973
276	32844	61	3.2663170921334
276	33031	62	4.4072764641012
276	33729	63	0.973
276	35534	64	3.4995855920994
276	35825	65	0.973
276	36011	66	5.1295385480059
276	36136	67	0.973
276	36541	68	6.2769490425147
276	36724	69	1.6560924500343
276	36789	70	0.973
276	36973	71	3.5425869257755
276	38011	72	0.973
276	39126	73	0.973
276	39308	74	2.8153327833879
276	39434	75	4.606382052687
276	39617	76	1.2882841103173
276	39742	77	0.973
276	40350	78	1.3214941929606
276	40417	79	6.0640620898901
276	40539	80	1.9611584677858
276	41357	81	0.973
277	31660	58	517.44499715861
277	32119	59	529.21301236499
277	32720	60	541.30341217603
277	32844	61	553.10966761246
277	33031	62	564.5270226526
277	33729	63	576.50589726529
277	35534	64	588.20578897036
277	35825	65	599.77417579807
277	36011	66	610.84536450139
277	36136	67	622.0183984328
277	36541	68	634.07367372223
277	36724	69	645.3274234988
277	36789	70	656.85410863137
277	36973	71	667.84327728783
277	38011	72	679.17112110133
277	39126	73	691.41602084124
277	39308	74	703.21456546464
277	39434	75	715.03985660399
277	39617	76	727.04637722114
277	39742	77	738.7104070523
277	40350	78	749.77041747204
277	40417	79	761.0181960498
277	40539	80	772.53431498916
277	41357	81	784.45338979515
278	31660	58	26.6
278	32119	59	26.6
278	32720	60	26.6
278	32844	61	26.6
278	33031	62	26.6
278	33729	63	26.6
278	35534	64	26.6
278	35825	65	26.6
278	36011	66	26.6
278	36136	67	26.6
278	36541	68	26.6
278	36724	69	26.6
278	36789	70	26.6
278	36973	71	26.6
278	38011	72	26.6
278	39126	73	26.6
278	39308	74	26.6
278	39434	75	26.6
278	39617	76	26.6
278	39742	77	26.6
278	40350	78	26.6
278	40417	79	26.6
278	40539	80	26.6
278	41357	81	26.6
279	31660	58	11.874468839099
279	32119	59	11.768015206373
279	32720	60	12.090399811045
279	32844	61	11.806255436433
279	33031	62	11.417355040135
279	33729	63	11.978874612693
279	35534	64	11.699891705066
279	35825	65	11.568386827712
279	36011	66	11.071188703319
279	36136	67	11.173033931409
279	36541	68	12.055275289435
279	36724	69	11.253749776562
279	36789	70	11.526685132576
279	36973	71	10.989168656455
279	38011	72	11.327843813505
279	39126	73	12.244899739907
279	39308	74	11.7985446234
279	39434	75	11.825291139353
279	39617	76	12.006520617148
279	39742	77	11.66402983116
279	40350	78	11.06001041974
279	40417	79	11.247778577754
279	40539	80	11.516118939361
279	41357	81	11.919074805989
280	31660	58	0.41240386820864
280	32119	59	-0.10645363272633
280	32720	60	0.32238460467197
280	32844	61	-0.28414437461179
280	33031	62	-0.38890039629769
280	33729	63	0.56151957255788
280	35534	64	-0.27898290762678
280	35825	65	-0.13150487735402
280	36011	66	-0.49719812439289
280	36136	67	0.10184522808995
280	36541	68	0.88224135802593
280	36724	69	-0.80152551287319
280	36789	70	0.27293535601348
280	36973	71	-0.5375164761208
280	38011	72	0.3386751570506
280	39126	73	0.9170559264021
280	39308	74	-0.44635511650704
280	39434	75	0.026746515952983
280	39617	76	0.18122947779484
280	39742	77	-0.34249078598805
280	40350	78	-0.60401941142045
280	40417	79	0.18776815801393
280	40539	80	0.26834036160726
280	41357	81	0.40295586662833
281	31660	58	3.0176931760566
281	32119	59	1.5263273461635
281	32720	60	2.7958663456823
281	32844	61	0.973
281	33031	62	0.973
281	33729	63	3.4677058192338
281	35534	64	0.973
281	35825	65	1.4444439828245
281	36011	66	0.973
281	36136	67	2.0520764038883
281	36541	68	4.4165879182702
281	36724	69	0.973
281	36789	70	2.5657199549088
281	36973	71	0.973
281	38011	72	2.7153228364803
281	39126	73	4.5765500104466
281	39308	74	0.973
281	39434	75	1.9094363075456
281	39617	76	2.3734860695559
281	39742	77	0.973
281	40350	78	0.973
281	40417	79	2.2930324791902
281	40539	80	2.5513736400627
281	41357	81	2.9988885965288
282	32268	59.754405482955	85
283	35620	64.567032617246	85

