version 2
run Default-0-20210609-20:49:46-1288
attr configname Default
attr datetime 20210609-20:49:46
attr experiment Default
attr inifile omnetpp.ini
attr iterationvars ""
attr iterationvarsf ""
attr measurement ""
attr network TestNetwork
attr processid 1288
attr repetition 0
attr replication #0
attr resultdir results
attr runnumber 0
attr seedset 1288
param *.playgroundSizeX 2600m
param *.playgroundSizeY 2500m
param *.playgroundSizeZ 50m
param *.annotations.draw true
param *.obstacles.debug false
param *.manager.updateInterval 1s
param *.manager.host "\"localhost\""
param *.manager.port 9999
param *.manager.autoShutdown true
param *.manager.launchConfig "xmldoc(\"Testing2.launchd.xml\")"
param *.rsu[0].mobility.x 250
param *.rsu[0].mobility.y 100
param *.rsu[0].mobility.z 0
param *.rsu[1].mobility.x 750
param *.rsu[1].mobility.y 100
param *.rsu[1].mobility.z 0
param *.rsu[2].mobility.x 1250
param *.rsu[2].mobility.y 100
param *.rsu[2].mobility.z 0
param *.rsu[3].mobility.x 1750
param *.rsu[3].mobility.y 100
param *.rsu[3].mobility.z 0
param *.rsu[4].mobility.x 2250
param *.rsu[4].mobility.y 100
param *.rsu[4].mobility.z 0
param *.rsu[*].applType "\"RSUClusterApp\""
param *.rsu[*].appl.headerLength "80 bit"
param *.rsu[*].appl.sendBeacons true
param *.rsu[*].appl.dataOnSch false
param *.rsu[*].appl.beaconInterval 0s
param *.rsu[*].appl.beaconUserPriority 7
param *.rsu[*].appl.dataUserPriority 5
param *.rsu[*].nic.phy80211p.antennaOffsetZ "0 m"
param **.switch*.relayUnit.typename "\"MacRelayUnit\""
param *.connectionManager.sendDirect true
param *.connectionManager.maxInterfDist 2600m
param *.connectionManager.drawMaxIntfDist false
param *.**.nic.mac1609_4.useServiceChannel false
param *.**.nic.mac1609_4.txPower 50mW
param *.**.nic.mac1609_4.bitrate 12Mbps
param *.**.nic.phy80211p.minPowerLevel -110dBm
param *.**.nic.phy80211p.allowTxDuringRx true
param *.**.nic.phy80211p.useNoiseFloor true
param *.**.nic.phy80211p.noiseFloor -98dBm
param *.**.nic.phy80211p.decider "xmldoc(\"config.xml\")"
param *.**.nic.phy80211p.analogueModels "xmldoc(\"config.xml\")"
param *.**.nic.phy80211p.usePropagationDelay true
param *.**.nic.phy80211p.antenna "xmldoc(\"antenna.xml\", \"/root/Antenna[@id='monopole']\")"
param *.node[*].nic.phy80211p.antennaOffsetY "0 m"
param *.node[*].nic.phy80211p.antennaOffsetZ "1.895 m"
param *.node[*].applType "\"VehicleApp\""
param *.node[*].appl.headerLength "80 bit"
param *.node[*].appl.sendBeacons false
param *.node[*].appl.dataOnSch false
param *.node[*].appl.beaconInterval 1s
param *.node[*].veinsmobility.x 0
param *.node[*].veinsmobility.y 0
param *.node[*].veinsmobility.z 0
param *.node[*].veinsmobility.setHostSpeed false
param *.node[*0].veinsmobility.accidentCount 0
param *.node[*0].veinsmobility.accidentStart 73s
param *.node[*0].veinsmobility.accidentDuration 50s

vector 0 TestNetwork.rsu[0].eth.encap encapPk:vector(packetBytes) ETV
attr interpolationmode none
attr source encapPk
attr title "packets encapsulated, vector(packetBytes)"
vector 1 TestNetwork.rsu[1].eth.encap encapPk:vector(packetBytes) ETV
attr interpolationmode none
attr source encapPk
attr title "packets encapsulated, vector(packetBytes)"
vector 2 TestNetwork.rsu[2].eth.encap encapPk:vector(packetBytes) ETV
attr interpolationmode none
attr source encapPk
attr title "packets encapsulated, vector(packetBytes)"
vector 3 TestNetwork.rsu[3].eth.encap encapPk:vector(packetBytes) ETV
attr interpolationmode none
attr source encapPk
attr title "packets encapsulated, vector(packetBytes)"
vector 4 TestNetwork.rsu[4].eth.encap encapPk:vector(packetBytes) ETV
attr interpolationmode none
attr source encapPk
attr title "packets encapsulated, vector(packetBytes)"
vector 5 TestNetwork.rsu[0].eth.mac packetReceivedFromUpper:vector(packetBytes) ETV
attr interpolationmode none
attr source packetReceivedFromUpper
attr title "packet bytes from higher layer, vector(packetBytes)"
vector 6 TestNetwork.rsu[0].eth.mac.queue packetPushed:vector(packetBytes) ETV
attr interpolationmode none
attr title "packet pushed, vector(packetBytes)"
vector 7 TestNetwork.rsu[0].eth.mac.queue queueLength:vector ETV
attr interpolationmode sample-hold
attr source "count(packetPushed) - count(packetPopped) - count(packetRemoved) - count(packetDropped)"
attr title "queue length, vector"
vector 8 TestNetwork.rsu[0].eth.mac.queue packetPopped:vector(packetBytes) ETV
attr interpolationmode none
attr title "packet popped, vector(packetBytes)"
vector 9 TestNetwork.rsu[0].eth.mac.queue queueingTime:vector ETV
attr interpolationmode none
attr source queueingTime(packetPopped)
attr title "queueing times, vector"
attr unit s
vector 10 TestNetwork.rsu[1].eth.mac packetReceivedFromUpper:vector(packetBytes) ETV
attr interpolationmode none
attr source packetReceivedFromUpper
attr title "packet bytes from higher layer, vector(packetBytes)"
vector 11 TestNetwork.rsu[1].eth.mac.queue packetPushed:vector(packetBytes) ETV
attr interpolationmode none
attr title "packet pushed, vector(packetBytes)"
vector 12 TestNetwork.rsu[1].eth.mac.queue queueLength:vector ETV
attr interpolationmode sample-hold
attr source "count(packetPushed) - count(packetPopped) - count(packetRemoved) - count(packetDropped)"
attr title "queue length, vector"
vector 13 TestNetwork.rsu[1].eth.mac.queue packetPopped:vector(packetBytes) ETV
attr interpolationmode none
attr title "packet popped, vector(packetBytes)"
vector 14 TestNetwork.rsu[1].eth.mac.queue queueingTime:vector ETV
attr interpolationmode none
attr source queueingTime(packetPopped)
attr title "queueing times, vector"
attr unit s
vector 15 TestNetwork.rsu[2].eth.mac packetReceivedFromUpper:vector(packetBytes) ETV
attr interpolationmode none
attr source packetReceivedFromUpper
attr title "packet bytes from higher layer, vector(packetBytes)"
vector 16 TestNetwork.rsu[2].eth.mac.queue packetPushed:vector(packetBytes) ETV
attr interpolationmode none
attr title "packet pushed, vector(packetBytes)"
vector 17 TestNetwork.rsu[2].eth.mac.queue queueLength:vector ETV
attr interpolationmode sample-hold
attr source "count(packetPushed) - count(packetPopped) - count(packetRemoved) - count(packetDropped)"
attr title "queue length, vector"
vector 18 TestNetwork.rsu[2].eth.mac.queue packetPopped:vector(packetBytes) ETV
attr interpolationmode none
attr title "packet popped, vector(packetBytes)"
vector 19 TestNetwork.rsu[2].eth.mac.queue queueingTime:vector ETV
attr interpolationmode none
attr source queueingTime(packetPopped)
attr title "queueing times, vector"
attr unit s
vector 20 TestNetwork.rsu[3].eth.mac packetReceivedFromUpper:vector(packetBytes) ETV
attr interpolationmode none
attr source packetReceivedFromUpper
attr title "packet bytes from higher layer, vector(packetBytes)"
vector 21 TestNetwork.rsu[3].eth.mac.queue packetPushed:vector(packetBytes) ETV
attr interpolationmode none
attr title "packet pushed, vector(packetBytes)"
vector 22 TestNetwork.rsu[3].eth.mac.queue queueLength:vector ETV
attr interpolationmode sample-hold
attr source "count(packetPushed) - count(packetPopped) - count(packetRemoved) - count(packetDropped)"
attr title "queue length, vector"
vector 23 TestNetwork.rsu[3].eth.mac.queue packetPopped:vector(packetBytes) ETV
attr interpolationmode none
attr title "packet popped, vector(packetBytes)"
vector 24 TestNetwork.rsu[3].eth.mac.queue queueingTime:vector ETV
attr interpolationmode none
attr source queueingTime(packetPopped)
attr title "queueing times, vector"
attr unit s
vector 25 TestNetwork.rsu[4].eth.mac packetReceivedFromUpper:vector(packetBytes) ETV
attr interpolationmode none
attr source packetReceivedFromUpper
attr title "packet bytes from higher layer, vector(packetBytes)"
vector 26 TestNetwork.rsu[4].eth.mac.queue packetPushed:vector(packetBytes) ETV
attr interpolationmode none
attr title "packet pushed, vector(packetBytes)"
vector 27 TestNetwork.rsu[4].eth.mac.queue queueLength:vector ETV
attr interpolationmode sample-hold
attr source "count(packetPushed) - count(packetPopped) - count(packetRemoved) - count(packetDropped)"
attr title "queue length, vector"
vector 28 TestNetwork.rsu[4].eth.mac.queue packetPopped:vector(packetBytes) ETV
attr interpolationmode none
attr title "packet popped, vector(packetBytes)"
vector 29 TestNetwork.rsu[4].eth.mac.queue queueingTime:vector ETV
attr interpolationmode none
attr source queueingTime(packetPopped)
attr title "queueing times, vector"
attr unit s
vector 30 TestNetwork.rsu[0].eth.mac txPk:vector(packetBytes) ETV
attr interpolationmode none
attr source packetSentToLower
attr title "packets transmitted, vector(packetBytes)"
vector 31 TestNetwork.rsu[1].eth.mac txPk:vector(packetBytes) ETV
attr interpolationmode none
attr source packetSentToLower
attr title "packets transmitted, vector(packetBytes)"
vector 32 TestNetwork.rsu[2].eth.mac txPk:vector(packetBytes) ETV
attr interpolationmode none
attr source packetSentToLower
attr title "packets transmitted, vector(packetBytes)"
vector 33 TestNetwork.rsu[3].eth.mac txPk:vector(packetBytes) ETV
attr interpolationmode none
attr source packetSentToLower
attr title "packets transmitted, vector(packetBytes)"
vector 34 TestNetwork.rsu[4].eth.mac txPk:vector(packetBytes) ETV
attr interpolationmode none
attr source packetSentToLower
attr title "packets transmitted, vector(packetBytes)"
vector 35 TestNetwork.switch1.eth[0].mac rxPkOk:vector(packetBytes) ETV
attr interpolationmode none
attr source rxPkOk
attr title "packets received OK, vector(packetBytes)"
vector 36 TestNetwork.switch1.eth[0].mac passedUpPk:vector(packetBytes) ETV
attr interpolationmode none
attr source packetSentToUpper
attr title "packets passed to higher layer, vector(packetBytes)"
vector 37 TestNetwork.switch4.eth[1].mac rxPkOk:vector(packetBytes) ETV
attr interpolationmode none
attr source rxPkOk
attr title "packets received OK, vector(packetBytes)"
vector 38 TestNetwork.switch4.eth[1].mac passedUpPk:vector(packetBytes) ETV
attr interpolationmode none
attr source packetSentToUpper
attr title "packets passed to higher layer, vector(packetBytes)"
vector 39 TestNetwork.switch5.eth[1].mac rxPkOk:vector(packetBytes) ETV
attr interpolationmode none
attr source rxPkOk
attr title "packets received OK, vector(packetBytes)"
vector 40 TestNetwork.switch5.eth[1].mac passedUpPk:vector(packetBytes) ETV
attr interpolationmode none
attr source packetSentToUpper
attr title "packets passed to higher layer, vector(packetBytes)"
vector 41 TestNetwork.switch7.eth[1].mac rxPkOk:vector(packetBytes) ETV
attr interpolationmode none
attr source rxPkOk
attr title "packets received OK, vector(packetBytes)"
vector 42 TestNetwork.switch7.eth[1].mac passedUpPk:vector(packetBytes) ETV
attr interpolationmode none
attr source packetSentToUpper
attr title "packets passed to higher layer, vector(packetBytes)"
vector 43 TestNetwork.switch7.eth[2].mac rxPkOk:vector(packetBytes) ETV
attr interpolationmode none
attr source rxPkOk
attr title "packets received OK, vector(packetBytes)"
vector 44 TestNetwork.switch7.eth[2].mac passedUpPk:vector(packetBytes) ETV
attr interpolationmode none
attr source packetSentToUpper
attr title "packets passed to higher layer, vector(packetBytes)"
vector 45 TestNetwork.switch4.eth[0].mac packetReceivedFromUpper:vector(packetBytes) ETV
attr interpolationmode none
attr source packetReceivedFromUpper
attr title "packet bytes from higher layer, vector(packetBytes)"
vector 46 TestNetwork.switch4.eth[0].mac.queue packetPushed:vector(packetBytes) ETV
attr interpolationmode none
attr title "packet pushed, vector(packetBytes)"
vector 47 TestNetwork.switch4.eth[0].mac.queue queueLength:vector ETV
attr interpolationmode sample-hold
attr source "count(packetPushed) - count(packetPopped) - count(packetRemoved) - count(packetDropped)"
attr title "queue length, vector"
vector 48 TestNetwork.switch4.eth[0].mac.queue packetPopped:vector(packetBytes) ETV
attr interpolationmode none
attr title "packet popped, vector(packetBytes)"
vector 49 TestNetwork.switch4.eth[0].mac.queue queueingTime:vector ETV
attr interpolationmode none
attr source queueingTime(packetPopped)
attr title "queueing times, vector"
attr unit s
vector 50 TestNetwork.switch4.eth[2].mac packetReceivedFromUpper:vector(packetBytes) ETV
attr interpolationmode none
attr source packetReceivedFromUpper
attr title "packet bytes from higher layer, vector(packetBytes)"
vector 51 TestNetwork.switch4.eth[2].mac.queue packetPushed:vector(packetBytes) ETV
attr interpolationmode none
attr title "packet pushed, vector(packetBytes)"
vector 52 TestNetwork.switch4.eth[2].mac.queue queueLength:vector ETV
attr interpolationmode sample-hold
attr source "count(packetPushed) - count(packetPopped) - count(packetRemoved) - count(packetDropped)"
attr title "queue length, vector"
vector 53 TestNetwork.switch4.eth[2].mac.queue packetPopped:vector(packetBytes) ETV
attr interpolationmode none
attr title "packet popped, vector(packetBytes)"
vector 54 TestNetwork.switch4.eth[2].mac.queue queueingTime:vector ETV
attr interpolationmode none
attr source queueingTime(packetPopped)
attr title "queueing times, vector"
attr unit s
vector 55 TestNetwork.switch4.eth[0].mac txPk:vector(packetBytes) ETV
attr interpolationmode none
attr source packetSentToLower
attr title "packets transmitted, vector(packetBytes)"
vector 56 TestNetwork.switch4.eth[2].mac txPk:vector(packetBytes) ETV
attr interpolationmode none
attr source packetSentToLower
attr title "packets transmitted, vector(packetBytes)"
vector 57 TestNetwork.switch3.eth[1].mac rxPkOk:vector(packetBytes) ETV
attr interpolationmode none
attr source rxPkOk
attr title "packets received OK, vector(packetBytes)"
vector 58 TestNetwork.switch3.eth[1].mac passedUpPk:vector(packetBytes) ETV
attr interpolationmode none
attr source packetSentToUpper
attr title "packets passed to higher layer, vector(packetBytes)"
vector 59 TestNetwork.switch5.eth[0].mac rxPkOk:vector(packetBytes) ETV
attr interpolationmode none
attr source rxPkOk
attr title "packets received OK, vector(packetBytes)"
vector 60 TestNetwork.switch5.eth[0].mac passedUpPk:vector(packetBytes) ETV
attr interpolationmode none
attr source packetSentToUpper
attr title "packets passed to higher layer, vector(packetBytes)"
vector 61 TestNetwork.switch7.eth[0].mac packetReceivedFromUpper:vector(packetBytes) ETV
attr interpolationmode none
attr source packetReceivedFromUpper
attr title "packet bytes from higher layer, vector(packetBytes)"
vector 62 TestNetwork.switch7.eth[0].mac.queue packetPushed:vector(packetBytes) ETV
attr interpolationmode none
attr title "packet pushed, vector(packetBytes)"
vector 63 TestNetwork.switch7.eth[0].mac.queue queueLength:vector ETV
attr interpolationmode sample-hold
attr source "count(packetPushed) - count(packetPopped) - count(packetRemoved) - count(packetDropped)"
attr title "queue length, vector"
vector 64 TestNetwork.switch7.eth[0].mac.queue packetPopped:vector(packetBytes) ETV
attr interpolationmode none
attr title "packet popped, vector(packetBytes)"
vector 65 TestNetwork.switch7.eth[0].mac.queue queueingTime:vector ETV
attr interpolationmode none
attr source queueingTime(packetPopped)
attr title "queueing times, vector"
attr unit s
vector 66 TestNetwork.switch7.eth[1].mac packetReceivedFromUpper:vector(packetBytes) ETV
attr interpolationmode none
attr source packetReceivedFromUpper
attr title "packet bytes from higher layer, vector(packetBytes)"
vector 67 TestNetwork.switch7.eth[1].mac.queue packetPushed:vector(packetBytes) ETV
attr interpolationmode none
attr title "packet pushed, vector(packetBytes)"
vector 68 TestNetwork.switch7.eth[1].mac.queue queueLength:vector ETV
attr interpolationmode sample-hold
attr source "count(packetPushed) - count(packetPopped) - count(packetRemoved) - count(packetDropped)"
attr title "queue length, vector"
vector 69 TestNetwork.switch7.eth[1].mac.queue packetPopped:vector(packetBytes) ETV
attr interpolationmode none
attr title "packet popped, vector(packetBytes)"
vector 70 TestNetwork.switch7.eth[1].mac.queue queueingTime:vector ETV
attr interpolationmode none
attr source queueingTime(packetPopped)
attr title "queueing times, vector"
attr unit s
vector 71 TestNetwork.switch7.eth[3].mac packetReceivedFromUpper:vector(packetBytes) ETV
attr interpolationmode none
attr source packetReceivedFromUpper
attr title "packet bytes from higher layer, vector(packetBytes)"
vector 72 TestNetwork.switch7.eth[3].mac.queue packetPushed:vector(packetBytes) ETV
attr interpolationmode none
attr title "packet pushed, vector(packetBytes)"
vector 73 TestNetwork.switch7.eth[3].mac.queue queueLength:vector ETV
attr interpolationmode sample-hold
attr source "count(packetPushed) - count(packetPopped) - count(packetRemoved) - count(packetDropped)"
attr title "queue length, vector"
vector 74 TestNetwork.switch7.eth[3].mac.queue packetPopped:vector(packetBytes) ETV
attr interpolationmode none
attr title "packet popped, vector(packetBytes)"
vector 75 TestNetwork.switch7.eth[3].mac.queue queueingTime:vector ETV
attr interpolationmode none
attr source queueingTime(packetPopped)
attr title "queueing times, vector"
attr unit s
vector 76 TestNetwork.switch7.eth[0].mac txPk:vector(packetBytes) ETV
attr interpolationmode none
attr source packetSentToLower
attr title "packets transmitted, vector(packetBytes)"
vector 77 TestNetwork.switch7.eth[1].mac txPk:vector(packetBytes) ETV
attr interpolationmode none
attr source packetSentToLower
attr title "packets transmitted, vector(packetBytes)"
vector 78 TestNetwork.switch7.eth[3].mac txPk:vector(packetBytes) ETV
attr interpolationmode none
attr source packetSentToLower
attr title "packets transmitted, vector(packetBytes)"
vector 79 TestNetwork.switch6.eth[2].mac rxPkOk:vector(packetBytes) ETV
attr interpolationmode none
attr source rxPkOk
attr title "packets received OK, vector(packetBytes)"
vector 80 TestNetwork.switch6.eth[2].mac passedUpPk:vector(packetBytes) ETV
attr interpolationmode none
attr source packetSentToUpper
attr title "packets passed to higher layer, vector(packetBytes)"
vector 81 TestNetwork.rsu[3].eth.mac rxPkOk:vector(packetBytes) ETV
attr interpolationmode none
attr source rxPkOk
attr title "packets received OK, vector(packetBytes)"
vector 82 TestNetwork.rsu[3].eth.mac passedUpPk:vector(packetBytes) ETV
attr interpolationmode none
attr source packetSentToUpper
attr title "packets passed to higher layer, vector(packetBytes)"
vector 83 TestNetwork.ES4.eth.mac rxPkOk:vector(packetBytes) ETV
attr interpolationmode none
attr source rxPkOk
attr title "packets received OK, vector(packetBytes)"
vector 84 TestNetwork.ES4.eth.mac passedUpPk:vector(packetBytes) ETV
attr interpolationmode none
attr source packetSentToUpper
attr title "packets passed to higher layer, vector(packetBytes)"
vector 85 TestNetwork.ES4.srv packetReceived:vector(packetBytes) ETV
attr interpolationmode none
attr source packetReceived
attr title "packets received, vector(packetBytes)"
vector 86 TestNetwork.ES4.srv packetSent:vector(packetBytes) ETV
attr interpolationmode none
attr source packetSent
attr title "packets sent, vector(packetBytes)"
vector 87 TestNetwork.ES4.llc encapPk:vector(packetBytes) ETV
attr interpolationmode none
attr source encapPk
attr title "packets encapsulated, vector(packetBytes)"
vector 88 TestNetwork.ES4.eth.mac packetReceivedFromUpper:vector(packetBytes) ETV
attr interpolationmode none
attr source packetReceivedFromUpper
attr title "packet bytes from higher layer, vector(packetBytes)"
vector 89 TestNetwork.ES4.eth.mac.queue packetPushed:vector(packetBytes) ETV
attr interpolationmode none
attr title "packet pushed, vector(packetBytes)"
vector 90 TestNetwork.ES4.eth.mac.queue queueLength:vector ETV
attr interpolationmode sample-hold
attr source "count(packetPushed) - count(packetPopped) - count(packetRemoved) - count(packetDropped)"
attr title "queue length, vector"
vector 91 TestNetwork.ES4.eth.mac.queue packetPopped:vector(packetBytes) ETV
attr interpolationmode none
attr title "packet popped, vector(packetBytes)"
vector 92 TestNetwork.ES4.eth.mac.queue queueingTime:vector ETV
attr interpolationmode none
attr source queueingTime(packetPopped)
attr title "queueing times, vector"
attr unit s
vector 93 TestNetwork.ES4.eth.mac txPk:vector(packetBytes) ETV
attr interpolationmode none
attr source packetSentToLower
attr title "packets transmitted, vector(packetBytes)"
vector 94 TestNetwork.switch7.eth[3].mac rxPkOk:vector(packetBytes) ETV
attr interpolationmode none
attr source rxPkOk
attr title "packets received OK, vector(packetBytes)"
vector 95 TestNetwork.switch7.eth[3].mac passedUpPk:vector(packetBytes) ETV
attr interpolationmode none
attr source packetSentToUpper
attr title "packets passed to higher layer, vector(packetBytes)"
vector 96 TestNetwork.switch7.eth[2].mac packetReceivedFromUpper:vector(packetBytes) ETV
attr interpolationmode none
attr source packetReceivedFromUpper
attr title "packet bytes from higher layer, vector(packetBytes)"
vector 97 TestNetwork.switch7.eth[2].mac.queue packetPushed:vector(packetBytes) ETV
attr interpolationmode none
attr title "packet pushed, vector(packetBytes)"
vector 98 TestNetwork.switch7.eth[2].mac.queue queueLength:vector ETV
attr interpolationmode sample-hold
attr source "count(packetPushed) - count(packetPopped) - count(packetRemoved) - count(packetDropped)"
attr title "queue length, vector"
vector 99 TestNetwork.switch7.eth[2].mac.queue packetPopped:vector(packetBytes) ETV
attr interpolationmode none
attr title "packet popped, vector(packetBytes)"
vector 100 TestNetwork.switch7.eth[2].mac.queue queueingTime:vector ETV
attr interpolationmode none
attr source queueingTime(packetPopped)
attr title "queueing times, vector"
attr unit s
vector 101 TestNetwork.switch7.eth[2].mac txPk:vector(packetBytes) ETV
attr interpolationmode none
attr source packetSentToLower
attr title "packets transmitted, vector(packetBytes)"
vector 102 TestNetwork.rsu[4].eth.mac rxPkOk:vector(packetBytes) ETV
attr interpolationmode none
attr source rxPkOk
attr title "packets received OK, vector(packetBytes)"
vector 103 TestNetwork.rsu[4].eth.mac passedUpPk:vector(packetBytes) ETV
attr interpolationmode none
attr source packetSentToUpper
attr title "packets passed to higher layer, vector(packetBytes)"
vector 104 TestNetwork.switch1.eth[1].mac packetReceivedFromUpper:vector(packetBytes) ETV
attr interpolationmode none
attr source packetReceivedFromUpper
attr title "packet bytes from higher layer, vector(packetBytes)"
vector 105 TestNetwork.switch1.eth[1].mac.queue packetPushed:vector(packetBytes) ETV
attr interpolationmode none
attr title "packet pushed, vector(packetBytes)"
vector 106 TestNetwork.switch1.eth[1].mac.queue queueLength:vector ETV
attr interpolationmode sample-hold
attr source "count(packetPushed) - count(packetPopped) - count(packetRemoved) - count(packetDropped)"
attr title "queue length, vector"
vector 107 TestNetwork.switch1.eth[1].mac.queue packetPopped:vector(packetBytes) ETV
attr interpolationmode none
attr title "packet popped, vector(packetBytes)"
vector 108 TestNetwork.switch1.eth[1].mac.queue queueingTime:vector ETV
attr interpolationmode none
attr source queueingTime(packetPopped)
attr title "queueing times, vector"
attr unit s
vector 109 TestNetwork.switch1.eth[2].mac packetReceivedFromUpper:vector(packetBytes) ETV
attr interpolationmode none
attr source packetReceivedFromUpper
attr title "packet bytes from higher layer, vector(packetBytes)"
vector 110 TestNetwork.switch1.eth[2].mac.queue packetPushed:vector(packetBytes) ETV
attr interpolationmode none
attr title "packet pushed, vector(packetBytes)"
vector 111 TestNetwork.switch1.eth[2].mac.queue queueLength:vector ETV
attr interpolationmode sample-hold
attr source "count(packetPushed) - count(packetPopped) - count(packetRemoved) - count(packetDropped)"
attr title "queue length, vector"
vector 112 TestNetwork.switch1.eth[2].mac.queue packetPopped:vector(packetBytes) ETV
attr interpolationmode none
attr title "packet popped, vector(packetBytes)"
vector 113 TestNetwork.switch1.eth[2].mac.queue queueingTime:vector ETV
attr interpolationmode none
attr source queueingTime(packetPopped)
attr title "queueing times, vector"
attr unit s
vector 114 TestNetwork.switch1.eth[1].mac txPk:vector(packetBytes) ETV
attr interpolationmode none
attr source packetSentToLower
attr title "packets transmitted, vector(packetBytes)"
vector 115 TestNetwork.switch1.eth[2].mac txPk:vector(packetBytes) ETV
attr interpolationmode none
attr source packetSentToLower
attr title "packets transmitted, vector(packetBytes)"
vector 116 TestNetwork.switch2.eth[0].mac rxPkOk:vector(packetBytes) ETV
attr interpolationmode none
attr source rxPkOk
attr title "packets received OK, vector(packetBytes)"
vector 117 TestNetwork.switch2.eth[0].mac passedUpPk:vector(packetBytes) ETV
attr interpolationmode none
attr source packetSentToUpper
attr title "packets passed to higher layer, vector(packetBytes)"
vector 118 TestNetwork.switch3.eth[0].mac rxPkOk:vector(packetBytes) ETV
attr interpolationmode none
attr source rxPkOk
attr title "packets received OK, vector(packetBytes)"
vector 119 TestNetwork.switch3.eth[0].mac passedUpPk:vector(packetBytes) ETV
attr interpolationmode none
attr source packetSentToUpper
attr title "packets passed to higher layer, vector(packetBytes)"
vector 120 TestNetwork.switch5.eth[0].mac packetReceivedFromUpper:vector(packetBytes) ETV
attr interpolationmode none
attr source packetReceivedFromUpper
attr title "packet bytes from higher layer, vector(packetBytes)"
vector 121 TestNetwork.switch5.eth[0].mac.queue packetPushed:vector(packetBytes) ETV
attr interpolationmode none
attr title "packet pushed, vector(packetBytes)"
vector 122 TestNetwork.switch5.eth[0].mac.queue queueLength:vector ETV
attr interpolationmode sample-hold
attr source "count(packetPushed) - count(packetPopped) - count(packetRemoved) - count(packetDropped)"
attr title "queue length, vector"
vector 123 TestNetwork.switch5.eth[0].mac.queue packetPopped:vector(packetBytes) ETV
attr interpolationmode none
attr title "packet popped, vector(packetBytes)"
vector 124 TestNetwork.switch5.eth[0].mac.queue queueingTime:vector ETV
attr interpolationmode none
attr source queueingTime(packetPopped)
attr title "queueing times, vector"
attr unit s
vector 125 TestNetwork.switch5.eth[2].mac packetReceivedFromUpper:vector(packetBytes) ETV
attr interpolationmode none
attr source packetReceivedFromUpper
attr title "packet bytes from higher layer, vector(packetBytes)"
vector 126 TestNetwork.switch5.eth[2].mac.queue packetPushed:vector(packetBytes) ETV
attr interpolationmode none
attr title "packet pushed, vector(packetBytes)"
vector 127 TestNetwork.switch5.eth[2].mac.queue queueLength:vector ETV
attr interpolationmode sample-hold
attr source "count(packetPushed) - count(packetPopped) - count(packetRemoved) - count(packetDropped)"
attr title "queue length, vector"
vector 128 TestNetwork.switch5.eth[2].mac.queue packetPopped:vector(packetBytes) ETV
attr interpolationmode none
attr title "packet popped, vector(packetBytes)"
vector 129 TestNetwork.switch5.eth[2].mac.queue queueingTime:vector ETV
attr interpolationmode none
attr source queueingTime(packetPopped)
attr title "queueing times, vector"
attr unit s
vector 130 TestNetwork.switch5.eth[0].mac txPk:vector(packetBytes) ETV
attr interpolationmode none
attr source packetSentToLower
attr title "packets transmitted, vector(packetBytes)"
vector 131 TestNetwork.switch5.eth[2].mac txPk:vector(packetBytes) ETV
attr interpolationmode none
attr source packetSentToLower
attr title "packets transmitted, vector(packetBytes)"
vector 132 TestNetwork.switch4.eth[2].mac rxPkOk:vector(packetBytes) ETV
attr interpolationmode none
attr source rxPkOk
attr title "packets received OK, vector(packetBytes)"
vector 133 TestNetwork.switch4.eth[2].mac passedUpPk:vector(packetBytes) ETV
attr interpolationmode none
attr source packetSentToUpper
attr title "packets passed to higher layer, vector(packetBytes)"
vector 134 TestNetwork.switch6.eth[0].mac rxPkOk:vector(packetBytes) ETV
attr interpolationmode none
attr source rxPkOk
attr title "packets received OK, vector(packetBytes)"
vector 135 TestNetwork.switch6.eth[0].mac passedUpPk:vector(packetBytes) ETV
attr interpolationmode none
attr source packetSentToUpper
attr title "packets passed to higher layer, vector(packetBytes)"
vector 136 TestNetwork.switch6.eth[0].mac packetReceivedFromUpper:vector(packetBytes) ETV
attr interpolationmode none
attr source packetReceivedFromUpper
attr title "packet bytes from higher layer, vector(packetBytes)"
vector 137 TestNetwork.switch6.eth[0].mac.queue packetPushed:vector(packetBytes) ETV
attr interpolationmode none
attr title "packet pushed, vector(packetBytes)"
vector 138 TestNetwork.switch6.eth[0].mac.queue queueLength:vector ETV
attr interpolationmode sample-hold
attr source "count(packetPushed) - count(packetPopped) - count(packetRemoved) - count(packetDropped)"
attr title "queue length, vector"
vector 139 TestNetwork.switch6.eth[0].mac.queue packetPopped:vector(packetBytes) ETV
attr interpolationmode none
attr title "packet popped, vector(packetBytes)"
vector 140 TestNetwork.switch6.eth[0].mac.queue queueingTime:vector ETV
attr interpolationmode none
attr source queueingTime(packetPopped)
attr title "queueing times, vector"
attr unit s
vector 141 TestNetwork.switch6.eth[1].mac packetReceivedFromUpper:vector(packetBytes) ETV
attr interpolationmode none
attr source packetReceivedFromUpper
attr title "packet bytes from higher layer, vector(packetBytes)"
vector 142 TestNetwork.switch6.eth[1].mac.queue packetPushed:vector(packetBytes) ETV
attr interpolationmode none
attr title "packet pushed, vector(packetBytes)"
vector 143 TestNetwork.switch6.eth[1].mac.queue queueLength:vector ETV
attr interpolationmode sample-hold
attr source "count(packetPushed) - count(packetPopped) - count(packetRemoved) - count(packetDropped)"
attr title "queue length, vector"
vector 144 TestNetwork.switch6.eth[1].mac.queue packetPopped:vector(packetBytes) ETV
attr interpolationmode none
attr title "packet popped, vector(packetBytes)"
vector 145 TestNetwork.switch6.eth[1].mac.queue queueingTime:vector ETV
attr interpolationmode none
attr source queueingTime(packetPopped)
attr title "queueing times, vector"
attr unit s
vector 146 TestNetwork.switch6.eth[0].mac txPk:vector(packetBytes) ETV
attr interpolationmode none
attr source packetSentToLower
attr title "packets transmitted, vector(packetBytes)"
vector 147 TestNetwork.switch6.eth[1].mac txPk:vector(packetBytes) ETV
attr interpolationmode none
attr source packetSentToLower
attr title "packets transmitted, vector(packetBytes)"
vector 148 TestNetwork.switch5.eth[2].mac rxPkOk:vector(packetBytes) ETV
attr interpolationmode none
attr source rxPkOk
attr title "packets received OK, vector(packetBytes)"
vector 149 TestNetwork.switch5.eth[2].mac passedUpPk:vector(packetBytes) ETV
attr interpolationmode none
attr source packetSentToUpper
attr title "packets passed to higher layer, vector(packetBytes)"
vector 150 TestNetwork.ES3.eth.mac rxPkOk:vector(packetBytes) ETV
attr interpolationmode none
attr source rxPkOk
attr title "packets received OK, vector(packetBytes)"
vector 151 TestNetwork.ES3.eth.mac passedUpPk:vector(packetBytes) ETV
attr interpolationmode none
attr source packetSentToUpper
attr title "packets passed to higher layer, vector(packetBytes)"
vector 152 TestNetwork.ES3.srv packetReceived:vector(packetBytes) ETV
attr interpolationmode none
attr source packetReceived
attr title "packets received, vector(packetBytes)"
vector 153 TestNetwork.ES3.srv packetSent:vector(packetBytes) ETV
attr interpolationmode none
attr source packetSent
attr title "packets sent, vector(packetBytes)"
vector 154 TestNetwork.ES3.llc encapPk:vector(packetBytes) ETV
attr interpolationmode none
attr source encapPk
attr title "packets encapsulated, vector(packetBytes)"
vector 155 TestNetwork.ES3.eth.mac packetReceivedFromUpper:vector(packetBytes) ETV
attr interpolationmode none
attr source packetReceivedFromUpper
attr title "packet bytes from higher layer, vector(packetBytes)"
vector 156 TestNetwork.ES3.eth.mac.queue packetPushed:vector(packetBytes) ETV
attr interpolationmode none
attr title "packet pushed, vector(packetBytes)"
vector 157 TestNetwork.ES3.eth.mac.queue queueLength:vector ETV
attr interpolationmode sample-hold
attr source "count(packetPushed) - count(packetPopped) - count(packetRemoved) - count(packetDropped)"
attr title "queue length, vector"
vector 158 TestNetwork.ES3.eth.mac.queue packetPopped:vector(packetBytes) ETV
attr interpolationmode none
attr title "packet popped, vector(packetBytes)"
vector 159 TestNetwork.ES3.eth.mac.queue queueingTime:vector ETV
attr interpolationmode none
attr source queueingTime(packetPopped)
attr title "queueing times, vector"
attr unit s
vector 160 TestNetwork.ES3.eth.mac txPk:vector(packetBytes) ETV
attr interpolationmode none
attr source packetSentToLower
attr title "packets transmitted, vector(packetBytes)"
vector 161 TestNetwork.switch6.eth[1].mac rxPkOk:vector(packetBytes) ETV
attr interpolationmode none
attr source rxPkOk
attr title "packets received OK, vector(packetBytes)"
vector 162 TestNetwork.switch6.eth[1].mac passedUpPk:vector(packetBytes) ETV
attr interpolationmode none
attr source packetSentToUpper
attr title "packets passed to higher layer, vector(packetBytes)"
vector 163 TestNetwork.switch6.eth[2].mac packetReceivedFromUpper:vector(packetBytes) ETV
attr interpolationmode none
attr source packetReceivedFromUpper
attr title "packet bytes from higher layer, vector(packetBytes)"
vector 164 TestNetwork.switch6.eth[2].mac.queue packetPushed:vector(packetBytes) ETV
attr interpolationmode none
attr title "packet pushed, vector(packetBytes)"
vector 165 TestNetwork.switch6.eth[2].mac.queue queueLength:vector ETV
attr interpolationmode sample-hold
attr source "count(packetPushed) - count(packetPopped) - count(packetRemoved) - count(packetDropped)"
attr title "queue length, vector"
vector 166 TestNetwork.switch6.eth[2].mac.queue packetPopped:vector(packetBytes) ETV
attr interpolationmode none
attr title "packet popped, vector(packetBytes)"
vector 167 TestNetwork.switch6.eth[2].mac.queue queueingTime:vector ETV
attr interpolationmode none
attr source queueingTime(packetPopped)
attr title "queueing times, vector"
attr unit s
vector 168 TestNetwork.switch6.eth[2].mac txPk:vector(packetBytes) ETV
attr interpolationmode none
attr source packetSentToLower
attr title "packets transmitted, vector(packetBytes)"
vector 169 TestNetwork.switch7.eth[0].mac rxPkOk:vector(packetBytes) ETV
attr interpolationmode none
attr source rxPkOk
attr title "packets received OK, vector(packetBytes)"
vector 170 TestNetwork.switch7.eth[0].mac passedUpPk:vector(packetBytes) ETV
attr interpolationmode none
attr source packetSentToUpper
attr title "packets passed to higher layer, vector(packetBytes)"
vector 171 TestNetwork.switch3.eth[0].mac packetReceivedFromUpper:vector(packetBytes) ETV
attr interpolationmode none
attr source packetReceivedFromUpper
attr title "packet bytes from higher layer, vector(packetBytes)"
vector 172 TestNetwork.switch3.eth[0].mac.queue packetPushed:vector(packetBytes) ETV
attr interpolationmode none
attr title "packet pushed, vector(packetBytes)"
vector 173 TestNetwork.switch3.eth[0].mac.queue queueLength:vector ETV
attr interpolationmode sample-hold
attr source "count(packetPushed) - count(packetPopped) - count(packetRemoved) - count(packetDropped)"
attr title "queue length, vector"
vector 174 TestNetwork.switch3.eth[0].mac.queue packetPopped:vector(packetBytes) ETV
attr interpolationmode none
attr title "packet popped, vector(packetBytes)"
vector 175 TestNetwork.switch3.eth[0].mac.queue queueingTime:vector ETV
attr interpolationmode none
attr source queueingTime(packetPopped)
attr title "queueing times, vector"
attr unit s
vector 176 TestNetwork.switch5.eth[1].mac packetReceivedFromUpper:vector(packetBytes) ETV
attr interpolationmode none
attr source packetReceivedFromUpper
attr title "packet bytes from higher layer, vector(packetBytes)"
vector 177 TestNetwork.switch5.eth[1].mac.queue packetPushed:vector(packetBytes) ETV
attr interpolationmode none
attr title "packet pushed, vector(packetBytes)"
vector 178 TestNetwork.switch5.eth[1].mac.queue queueLength:vector ETV
attr interpolationmode sample-hold
attr source "count(packetPushed) - count(packetPopped) - count(packetRemoved) - count(packetDropped)"
attr title "queue length, vector"
vector 179 TestNetwork.switch5.eth[1].mac.queue packetPopped:vector(packetBytes) ETV
attr interpolationmode none
attr title "packet popped, vector(packetBytes)"
vector 180 TestNetwork.switch5.eth[1].mac.queue queueingTime:vector ETV
attr interpolationmode none
attr source queueingTime(packetPopped)
attr title "queueing times, vector"
attr unit s
vector 181 TestNetwork.switch3.eth[0].mac txPk:vector(packetBytes) ETV
attr interpolationmode none
attr source packetSentToLower
attr title "packets transmitted, vector(packetBytes)"
vector 182 TestNetwork.switch5.eth[1].mac txPk:vector(packetBytes) ETV
attr interpolationmode none
attr source packetSentToLower
attr title "packets transmitted, vector(packetBytes)"
vector 183 TestNetwork.switch1.eth[2].mac rxPkOk:vector(packetBytes) ETV
attr interpolationmode none
attr source rxPkOk
attr title "packets received OK, vector(packetBytes)"
vector 184 TestNetwork.switch1.eth[2].mac passedUpPk:vector(packetBytes) ETV
attr interpolationmode none
attr source packetSentToUpper
attr title "packets passed to higher layer, vector(packetBytes)"
vector 185 TestNetwork.rsu[2].eth.mac rxPkOk:vector(packetBytes) ETV
attr interpolationmode none
attr source rxPkOk
attr title "packets received OK, vector(packetBytes)"
vector 186 TestNetwork.rsu[2].eth.mac passedUpPk:vector(packetBytes) ETV
attr interpolationmode none
attr source packetSentToUpper
attr title "packets passed to higher layer, vector(packetBytes)"
vector 187 TestNetwork.switch4.eth[1].mac packetReceivedFromUpper:vector(packetBytes) ETV
attr interpolationmode none
attr source packetReceivedFromUpper
attr title "packet bytes from higher layer, vector(packetBytes)"
vector 188 TestNetwork.switch4.eth[1].mac.queue packetPushed:vector(packetBytes) ETV
attr interpolationmode none
attr title "packet pushed, vector(packetBytes)"
vector 189 TestNetwork.switch4.eth[1].mac.queue queueLength:vector ETV
attr interpolationmode sample-hold
attr source "count(packetPushed) - count(packetPopped) - count(packetRemoved) - count(packetDropped)"
attr title "queue length, vector"
vector 190 TestNetwork.switch4.eth[1].mac.queue packetPopped:vector(packetBytes) ETV
attr interpolationmode none
attr title "packet popped, vector(packetBytes)"
vector 191 TestNetwork.switch4.eth[1].mac.queue queueingTime:vector ETV
attr interpolationmode none
attr source queueingTime(packetPopped)
attr title "queueing times, vector"
attr unit s
vector 192 TestNetwork.switch4.eth[1].mac txPk:vector(packetBytes) ETV
attr interpolationmode none
attr source packetSentToLower
attr title "packets transmitted, vector(packetBytes)"
vector 193 TestNetwork.rsu[1].eth.mac rxPkOk:vector(packetBytes) ETV
attr interpolationmode none
attr source rxPkOk
attr title "packets received OK, vector(packetBytes)"
vector 194 TestNetwork.rsu[1].eth.mac passedUpPk:vector(packetBytes) ETV
attr interpolationmode none
attr source packetSentToUpper
attr title "packets passed to higher layer, vector(packetBytes)"
vector 195 TestNetwork.switch2.eth[1].mac packetReceivedFromUpper:vector(packetBytes) ETV
attr interpolationmode none
attr source packetReceivedFromUpper
attr title "packet bytes from higher layer, vector(packetBytes)"
vector 196 TestNetwork.switch2.eth[1].mac.queue packetPushed:vector(packetBytes) ETV
attr interpolationmode none
attr title "packet pushed, vector(packetBytes)"
vector 197 TestNetwork.switch2.eth[1].mac.queue queueLength:vector ETV
attr interpolationmode sample-hold
attr source "count(packetPushed) - count(packetPopped) - count(packetRemoved) - count(packetDropped)"
attr title "queue length, vector"
vector 198 TestNetwork.switch2.eth[1].mac.queue packetPopped:vector(packetBytes) ETV
attr interpolationmode none
attr title "packet popped, vector(packetBytes)"
vector 199 TestNetwork.switch2.eth[1].mac.queue queueingTime:vector ETV
attr interpolationmode none
attr source queueingTime(packetPopped)
attr title "queueing times, vector"
attr unit s
vector 200 TestNetwork.switch2.eth[2].mac packetReceivedFromUpper:vector(packetBytes) ETV
attr interpolationmode none
attr source packetReceivedFromUpper
attr title "packet bytes from higher layer, vector(packetBytes)"
vector 201 TestNetwork.switch2.eth[2].mac.queue packetPushed:vector(packetBytes) ETV
attr interpolationmode none
attr title "packet pushed, vector(packetBytes)"
vector 202 TestNetwork.switch2.eth[2].mac.queue queueLength:vector ETV
attr interpolationmode sample-hold
attr source "count(packetPushed) - count(packetPopped) - count(packetRemoved) - count(packetDropped)"
attr title "queue length, vector"
vector 203 TestNetwork.switch2.eth[2].mac.queue packetPopped:vector(packetBytes) ETV
attr interpolationmode none
attr title "packet popped, vector(packetBytes)"
vector 204 TestNetwork.switch2.eth[2].mac.queue queueingTime:vector ETV
attr interpolationmode none
attr source queueingTime(packetPopped)
attr title "queueing times, vector"
attr unit s
vector 205 TestNetwork.switch3.eth[1].mac packetReceivedFromUpper:vector(packetBytes) ETV
attr interpolationmode none
attr source packetReceivedFromUpper
attr title "packet bytes from higher layer, vector(packetBytes)"
vector 206 TestNetwork.switch3.eth[1].mac.queue packetPushed:vector(packetBytes) ETV
attr interpolationmode none
attr title "packet pushed, vector(packetBytes)"
vector 207 TestNetwork.switch3.eth[1].mac.queue queueLength:vector ETV
attr interpolationmode sample-hold
attr source "count(packetPushed) - count(packetPopped) - count(packetRemoved) - count(packetDropped)"
attr title "queue length, vector"
vector 208 TestNetwork.switch3.eth[1].mac.queue packetPopped:vector(packetBytes) ETV
attr interpolationmode none
attr title "packet popped, vector(packetBytes)"
vector 209 TestNetwork.switch3.eth[1].mac.queue queueingTime:vector ETV
attr interpolationmode none
attr source queueingTime(packetPopped)
attr title "queueing times, vector"
attr unit s
vector 210 TestNetwork.switch2.eth[1].mac txPk:vector(packetBytes) ETV
attr interpolationmode none
attr source packetSentToLower
attr title "packets transmitted, vector(packetBytes)"
vector 211 TestNetwork.switch2.eth[2].mac txPk:vector(packetBytes) ETV
attr interpolationmode none
attr source packetSentToLower
attr title "packets transmitted, vector(packetBytes)"
vector 212 TestNetwork.switch3.eth[1].mac txPk:vector(packetBytes) ETV
attr interpolationmode none
attr source packetSentToLower
attr title "packets transmitted, vector(packetBytes)"
vector 213 TestNetwork.ES1.eth.mac rxPkOk:vector(packetBytes) ETV
attr interpolationmode none
attr source rxPkOk
attr title "packets received OK, vector(packetBytes)"
vector 214 TestNetwork.ES1.eth.mac passedUpPk:vector(packetBytes) ETV
attr interpolationmode none
attr source packetSentToUpper
attr title "packets passed to higher layer, vector(packetBytes)"
vector 215 TestNetwork.ES2.eth.mac rxPkOk:vector(packetBytes) ETV
attr interpolationmode none
attr source rxPkOk
attr title "packets received OK, vector(packetBytes)"
vector 216 TestNetwork.ES2.eth.mac passedUpPk:vector(packetBytes) ETV
attr interpolationmode none
attr source packetSentToUpper
attr title "packets passed to higher layer, vector(packetBytes)"
vector 217 TestNetwork.switch4.eth[0].mac rxPkOk:vector(packetBytes) ETV
attr interpolationmode none
attr source rxPkOk
attr title "packets received OK, vector(packetBytes)"
vector 218 TestNetwork.switch4.eth[0].mac passedUpPk:vector(packetBytes) ETV
attr interpolationmode none
attr source packetSentToUpper
attr title "packets passed to higher layer, vector(packetBytes)"
vector 219 TestNetwork.ES1.srv packetReceived:vector(packetBytes) ETV
attr interpolationmode none
attr source packetReceived
attr title "packets received, vector(packetBytes)"
vector 220 TestNetwork.ES1.srv packetSent:vector(packetBytes) ETV
attr interpolationmode none
attr source packetSent
attr title "packets sent, vector(packetBytes)"
vector 221 TestNetwork.ES2.srv packetReceived:vector(packetBytes) ETV
attr interpolationmode none
attr source packetReceived
attr title "packets received, vector(packetBytes)"
vector 222 TestNetwork.ES2.srv packetSent:vector(packetBytes) ETV
attr interpolationmode none
attr source packetSent
attr title "packets sent, vector(packetBytes)"
vector 223 TestNetwork.ES1.llc encapPk:vector(packetBytes) ETV
attr interpolationmode none
attr source encapPk
attr title "packets encapsulated, vector(packetBytes)"
vector 224 TestNetwork.ES2.llc encapPk:vector(packetBytes) ETV
attr interpolationmode none
attr source encapPk
attr title "packets encapsulated, vector(packetBytes)"
vector 225 TestNetwork.ES1.eth.mac packetReceivedFromUpper:vector(packetBytes) ETV
attr interpolationmode none
attr source packetReceivedFromUpper
attr title "packet bytes from higher layer, vector(packetBytes)"
vector 226 TestNetwork.ES1.eth.mac.queue packetPushed:vector(packetBytes) ETV
attr interpolationmode none
attr title "packet pushed, vector(packetBytes)"
vector 227 TestNetwork.ES1.eth.mac.queue queueLength:vector ETV
attr interpolationmode sample-hold
attr source "count(packetPushed) - count(packetPopped) - count(packetRemoved) - count(packetDropped)"
attr title "queue length, vector"
vector 228 TestNetwork.ES1.eth.mac.queue packetPopped:vector(packetBytes) ETV
attr interpolationmode none
attr title "packet popped, vector(packetBytes)"
vector 229 TestNetwork.ES1.eth.mac.queue queueingTime:vector ETV
attr interpolationmode none
attr source queueingTime(packetPopped)
attr title "queueing times, vector"
attr unit s
vector 230 TestNetwork.ES2.eth.mac packetReceivedFromUpper:vector(packetBytes) ETV
attr interpolationmode none
attr source packetReceivedFromUpper
attr title "packet bytes from higher layer, vector(packetBytes)"
vector 231 TestNetwork.ES2.eth.mac.queue packetPushed:vector(packetBytes) ETV
attr interpolationmode none
attr title "packet pushed, vector(packetBytes)"
vector 232 TestNetwork.ES2.eth.mac.queue queueLength:vector ETV
attr interpolationmode sample-hold
attr source "count(packetPushed) - count(packetPopped) - count(packetRemoved) - count(packetDropped)"
attr title "queue length, vector"
vector 233 TestNetwork.ES2.eth.mac.queue packetPopped:vector(packetBytes) ETV
attr interpolationmode none
attr title "packet popped, vector(packetBytes)"
vector 234 TestNetwork.ES2.eth.mac.queue queueingTime:vector ETV
attr interpolationmode none
attr source queueingTime(packetPopped)
attr title "queueing times, vector"
attr unit s
vector 235 TestNetwork.ES1.eth.mac txPk:vector(packetBytes) ETV
attr interpolationmode none
attr source packetSentToLower
attr title "packets transmitted, vector(packetBytes)"
vector 236 TestNetwork.ES2.eth.mac txPk:vector(packetBytes) ETV
attr interpolationmode none
attr source packetSentToLower
attr title "packets transmitted, vector(packetBytes)"
vector 237 TestNetwork.switch2.eth[1].mac rxPkOk:vector(packetBytes) ETV
attr interpolationmode none
attr source rxPkOk
attr title "packets received OK, vector(packetBytes)"
vector 238 TestNetwork.switch2.eth[1].mac passedUpPk:vector(packetBytes) ETV
attr interpolationmode none
attr source packetSentToUpper
attr title "packets passed to higher layer, vector(packetBytes)"
vector 239 TestNetwork.switch2.eth[2].mac rxPkOk:vector(packetBytes) ETV
attr interpolationmode none
attr source rxPkOk
attr title "packets received OK, vector(packetBytes)"
vector 240 TestNetwork.switch2.eth[2].mac passedUpPk:vector(packetBytes) ETV
attr interpolationmode none
attr source packetSentToUpper
attr title "packets passed to higher layer, vector(packetBytes)"
vector 241 TestNetwork.switch2.eth[0].mac packetReceivedFromUpper:vector(packetBytes) ETV
attr interpolationmode none
attr source packetReceivedFromUpper
attr title "packet bytes from higher layer, vector(packetBytes)"
vector 242 TestNetwork.switch2.eth[0].mac.queue packetPushed:vector(packetBytes) ETV
attr interpolationmode none
attr title "packet pushed, vector(packetBytes)"
vector 243 TestNetwork.switch2.eth[0].mac.queue queueLength:vector ETV
attr interpolationmode sample-hold
attr source "count(packetPushed) - count(packetPopped) - count(packetRemoved) - count(packetDropped)"
attr title "queue length, vector"
vector 244 TestNetwork.switch2.eth[0].mac.queue packetPopped:vector(packetBytes) ETV
attr interpolationmode none
attr title "packet popped, vector(packetBytes)"
vector 245 TestNetwork.switch2.eth[0].mac.queue queueingTime:vector ETV
attr interpolationmode none
attr source queueingTime(packetPopped)
attr title "queueing times, vector"
attr unit s
vector 246 TestNetwork.switch2.eth[0].mac txPk:vector(packetBytes) ETV
attr interpolationmode none
attr source packetSentToLower
attr title "packets transmitted, vector(packetBytes)"
vector 247 TestNetwork.switch1.eth[1].mac rxPkOk:vector(packetBytes) ETV
attr interpolationmode none
attr source rxPkOk
attr title "packets received OK, vector(packetBytes)"
vector 248 TestNetwork.switch1.eth[1].mac passedUpPk:vector(packetBytes) ETV
attr interpolationmode none
attr source packetSentToUpper
attr title "packets passed to higher layer, vector(packetBytes)"
vector 249 TestNetwork.switch1.eth[0].mac packetReceivedFromUpper:vector(packetBytes) ETV
attr interpolationmode none
attr source packetReceivedFromUpper
attr title "packet bytes from higher layer, vector(packetBytes)"
vector 250 TestNetwork.switch1.eth[0].mac.queue packetPushed:vector(packetBytes) ETV
attr interpolationmode none
attr title "packet pushed, vector(packetBytes)"
vector 251 TestNetwork.switch1.eth[0].mac.queue queueLength:vector ETV
attr interpolationmode sample-hold
attr source "count(packetPushed) - count(packetPopped) - count(packetRemoved) - count(packetDropped)"
attr title "queue length, vector"
vector 252 TestNetwork.switch1.eth[0].mac.queue packetPopped:vector(packetBytes) ETV
attr interpolationmode none
attr title "packet popped, vector(packetBytes)"
vector 253 TestNetwork.switch1.eth[0].mac.queue queueingTime:vector ETV
attr interpolationmode none
attr source queueingTime(packetPopped)
attr title "queueing times, vector"
attr unit s
vector 254 TestNetwork.switch1.eth[0].mac txPk:vector(packetBytes) ETV
attr interpolationmode none
attr source packetSentToLower
attr title "packets transmitted, vector(packetBytes)"
vector 255 TestNetwork.rsu[0].eth.mac rxPkOk:vector(packetBytes) ETV
attr interpolationmode none
attr source rxPkOk
attr title "packets received OK, vector(packetBytes)"
vector 256 TestNetwork.rsu[0].eth.mac passedUpPk:vector(packetBytes) ETV
attr interpolationmode none
attr source packetSentToUpper
attr title "packets passed to higher layer, vector(packetBytes)"
vector 257 TestNetwork.node[0].veinsmobility posx ETV
vector 258 TestNetwork.node[0].veinsmobility posy ETV
vector 259 TestNetwork.node[0].veinsmobility speed ETV
vector 260 TestNetwork.node[1].veinsmobility posx ETV
vector 261 TestNetwork.node[1].veinsmobility posy ETV
vector 262 TestNetwork.node[0].veinsmobility acceleration ETV
vector 263 TestNetwork.node[0].veinsmobility co2emission ETV
vector 264 TestNetwork.node[1].veinsmobility speed ETV
vector 265 TestNetwork.node[2].veinsmobility posx ETV
vector 266 TestNetwork.node[2].veinsmobility posy ETV
vector 267 TestNetwork.node[1].veinsmobility acceleration ETV
vector 268 TestNetwork.node[1].veinsmobility co2emission ETV
vector 269 TestNetwork.node[2].veinsmobility speed ETV
vector 270 TestNetwork.node[3].veinsmobility posx ETV
vector 271 TestNetwork.node[3].veinsmobility posy ETV
vector 272 TestNetwork.node[2].veinsmobility acceleration ETV
vector 273 TestNetwork.node[2].veinsmobility co2emission ETV
vector 274 TestNetwork.node[3].veinsmobility speed ETV
vector 275 TestNetwork.node[4].veinsmobility posx ETV
vector 276 TestNetwork.node[4].veinsmobility posy ETV
vector 277 TestNetwork.node[3].veinsmobility acceleration ETV
vector 278 TestNetwork.node[3].veinsmobility co2emission ETV
vector 279 TestNetwork.node[4].veinsmobility speed ETV
vector 280 TestNetwork.node[4].veinsmobility acceleration ETV
vector 281 TestNetwork.node[4].veinsmobility co2emission ETV
263	10622	3	4.4237008786089
263	14174	4	3.6675108875623
263	17567	5	5.8523352695838
263	21722	6	5.3758904172768
263	25583	7	4.0960129767864
263	30044	8	6.5996210343648
263	34433	9	-0.046708995841718
263	39398	10	6.3143684979349
263	44138	11	8.5874104121004
263	49107	12	7.879829822583
263	53922	13	0.973
263	58709	14	4.4928302741511
263	63571	15	9.0627493798225
263	68405	16	3.7179865209888
263	73306	17	3.6869353252612
263	78159	18	9.5404711174379
263	83346	19	5.4152572519611
263	88143	20	1.1488369842524
263	93947	21	7.0401210484046
263	98743	22	5.1637649492268
263	104063	23	7.4485065578356
263	108990	24	-0.41594972382921
263	114732	25	4.0408759189858
263	119695	26	6.4898194858971
263	125427	27	1.1910454477109
263	130337	28	12.433985244387
263	135142	29	2.557689079828
263	140023	30	7.3742278264749
263	144846	31	3.4633105010389
263	149675	32	4.4341163867126
263	154503	33	2.4917964130443
263	159388	34	1.5038060327784
263	164341	35	13.663100418929
263	169401	36	5.1913597331232
263	174256	37	1.9509368487857
263	179449	38	5.3141216060621
263	184308	39	5.9100654852902
263	189597	40	4.4984850470097
263	194516	41	0.973
262	10622	3	-0.05724044831004
262	14174	4	-0.1590481731575
262	17567	5	0.14615379297175
262	21722	6	0.07524425089359
262	25583	7	-0.10228467471897
262	30044	8	0.24176943234633
262	34433	9	-0.6838982203044
262	39398	10	0.2235190498177
262	44138	11	0.51862231234554
262	49107	12	0.39735214505345
262	53922	13	-1.1310336145572
262	58709	14	-0.027902145148254
262	63571	15	0.59558312112931
262	68405	16	-0.15527659745421
262	73306	17	-0.15430298447609
262	78159	18	0.64227801172528
262	83346	19	0.062406831118277
262	88143	20	-0.5214106873842
262	93947	21	0.30049047963694
262	98743	22	0.035075398790649
262	104063	23	0.33829581567552
262	108990	24	-0.74276477880776
262	114732	25	-0.10406274471898
262	119695	26	0.23463617179077
262	125427	27	-0.50537824130151
262	130337	28	1.0369316855213
262	135142	29	-0.32897679989692
262	140023	30	0.33201870198827
262	144846	31	-0.2057018057676
262	149675	32	-0.066980447247623
262	154503	33	-0.33035720579792
262	159388	34	-0.45969738354906
262	164341	35	1.1969682039926
262	169401	36	0.021484975144265
262	174256	37	-0.41633368402254
262	179449	38	0.053899684385396
262	184308	39	0.13150935217272
262	189597	40	-0.063137565320357
262	194516	41	-0.85249855716247
259	7644	2	29.286542447004
259	10622	3	29.229301998694
259	14174	4	29.070253825537
259	17567	5	29.216407618509
259	21722	6	29.291651869402
259	25583	7	29.189367194683
259	30044	8	29.43113662703
259	34433	9	28.747238406725
259	39398	10	28.970757456543
259	44138	11	29.489379768888
259	49107	12	29.886731913942
259	53922	13	28.755698299385
259	58709	14	28.727796154236
259	63571	15	29.323379275366
259	68405	16	29.168102677912
259	73306	17	29.013799693435
259	78159	18	29.656077705161
259	83346	19	29.718484536279
259	88143	20	29.197073848895
259	93947	21	29.497564328532
259	98743	22	29.532639727322
259	104063	23	29.870935542998
259	108990	24	29.12817076419
259	114732	25	29.024108019471
259	119695	26	29.258744191262
259	125427	27	28.75336594996
259	130337	28	29.790297635482
259	135142	29	29.461320835585
259	140023	30	29.793339537573
259	144846	31	29.587637731805
259	149675	32	29.520657284558
259	154503	33	29.19030007876
259	159388	34	28.730602695211
259	164341	35	29.927570899203
259	169401	36	29.949055874348
259	174256	37	29.532722190325
259	179449	38	29.586621874711
259	184308	39	29.718131226883
259	189597	40	29.654993661563
259	194516	41	28.8024951044
258	4529	1	26.6
258	7644	2	26.6
258	10622	3	26.6
258	14174	4	26.6
258	17567	5	26.6
258	21722	6	26.6
258	25583	7	26.6
258	30044	8	26.6
258	34433	9	26.6
258	39398	10	26.6
258	44138	11	26.6
258	49107	12	26.6
258	53922	13	26.6
258	58709	14	26.6
258	63571	15	26.6
258	68405	16	26.6
258	73306	17	26.6
258	78159	18	26.6
258	83346	19	26.6
258	88143	20	26.6
258	93947	21	26.6
258	98743	22	26.6
258	104063	23	26.6
258	108990	24	26.6
258	114732	25	26.6
258	119695	26	26.6
258	125427	27	26.6
258	130337	28	26.6
258	135142	29	26.6
258	140023	30	26.6
258	144846	31	26.6
258	149675	32	26.6
258	154503	33	26.6
258	159388	34	26.6
258	164341	35	26.6
258	169401	36	26.6
258	174256	37	26.6
258	179449	38	26.6
258	184308	39	26.6
258	189597	40	26.6
258	194516	41	26.6
257	4529	1	30.1
257	7644	2	59.386542447004
257	10622	3	88.615844445699
257	14174	4	117.68609827124
257	17567	5	146.90250588974
257	21722	6	176.19415775915
257	25583	7	205.38352495383
257	30044	8	234.81466158086
257	34433	9	263.56189998758
257	39398	10	292.53265744413
257	44138	11	322.02203721302
257	49107	12	351.90876912696
257	53922	13	380.66446742634
257	58709	14	409.39226358058
257	63571	15	438.71564285595
257	68405	16	467.88374553386
257	73306	17	496.89754522729
257	78159	18	526.55362293245
257	83346	19	556.27210746873
257	88143	20	585.46918131763
257	93947	21	614.96674564616
257	98743	22	644.49938537348
257	104063	23	674.37032091648
257	108990	24	703.49849168067
257	114732	25	732.52259970014
257	119695	26	761.7813438914
257	125427	27	790.53470984136
257	130337	28	820.32500747684
257	135142	29	849.78632831243
257	140023	30	879.57966785
257	144846	31	909.16730558181
257	149675	32	938.68796286637
257	154503	33	967.87826294513
257	159388	34	996.60886564034
257	164341	35	1026.5364365395
257	169401	36	1056.4854924139
257	174256	37	1086.0182146042
257	179449	38	1115.6048364789
257	184308	39	1145.3229677058
257	189597	40	1174.9779613674
257	194516	41	1203.7804564718
268	17567	5	4.6058547965226
268	21722	6	4.830359979712
268	25583	7	6.6468902953748
268	30044	8	8.1695495706576
268	34433	9	5.1780311175332
268	39398	10	-0.14610211811953
268	44138	11	3.6817878347245
268	49107	12	7.3407366583257
268	53922	13	3.5781942319761
268	58709	14	7.6749988279533
268	63571	15	1.9706773541808
268	68405	16	6.6496628433846
268	73306	17	5.4060544357756
268	78159	18	8.1078647616663
268	83346	19	1.3330605032281
268	88143	20	8.904214020554
268	93947	21	0.973
268	98743	22	7.8449662847048
268	104063	23	10.210739348236
268	108990	24	3.953088335018
268	114732	25	3.5909972191637
268	119695	26	7.6357966275406
268	125427	27	4.4167739816576
268	130337	28	0.973
268	135142	29	9.7455181321824
268	140023	30	6.1104893886746
268	144846	31	6.8651318016519
268	149675	32	0.014346369861312
268	154503	33	3.1480371103574
268	159388	34	4.3584010964698
268	164341	35	7.3243318212295
268	169401	36	6.387181856178
268	174256	37	6.2887229813651
268	179449	38	-0.56114977019101
268	184308	39	6.5041631374046
268	189597	40	6.5447976326427
268	194516	41	4.2193720761223
268	199903	42	10.371028559569
268	204289	43	-1.0198973478406
267	17567	5	-0.01778383848723
267	21722	6	0.01390204736963
267	25583	7	0.2617649088148
267	30044	8	0.45286736278795
267	34433	9	0.032341803959572
267	39398	10	-0.70136616153177
267	44138	11	-0.14745627879165
267	49107	12	0.36065218367148
267	53922	13	-0.16898034443147
267	58709	14	0.39591333193239
267	63571	15	-0.39899747632444
267	68405	16	0.25806219973601
267	73306	17	0.078222901979462
267	78159	18	0.43617077872623
267	83346	19	-0.49673208491877
267	88143	20	0.54438680990133
267	93947	21	-1.0322951749433
267	98743	22	0.4298899974674
267	104063	23	0.71868939395063
267	108990	24	-0.14388935551979
267	114732	25	-0.18787439258304
267	119695	26	0.36010380135849
267	125427	27	-0.08270519566722
267	130337	28	-1.1612311864272
267	135142	29	0.68768543063197
267	140023	30	0.1667941018939
267	144846	31	0.2597720684018
267	149675	32	-0.6816470941063
267	154503	33	-0.22804345020559
267	159388	34	-0.05232313044835
267	164341	35	0.35535233570263
267	169401	36	0.2120749755064
267	174256	37	0.18924193882849
267	179449	38	-0.75963640201371
267	184308	39	0.24440490594134
267	189597	40	0.23855410590768
267	194516	41	-0.087070794473401
267	199903	42	0.73656673145015
267	204289	43	-0.82916266787797
264	14174	4	28.902454532683
264	17567	5	28.884670694196
264	21722	6	28.898572741565
264	25583	7	29.16033765038
264	30044	8	29.613205013168
264	34433	9	29.645546817128
264	39398	10	28.944180655596
264	44138	11	28.796724376804
264	49107	12	29.157376560476
264	53922	13	28.988396216044
264	58709	14	29.384309547977
264	63571	15	28.985312071652
264	68405	16	29.243374271388
264	73306	17	29.321597173368
264	78159	18	29.757767952094
264	83346	19	29.261035867175
264	88143	20	29.805422677076
264	93947	21	28.773127502133
264	98743	22	29.203017499601
264	104063	23	29.921706893551
264	108990	24	29.777817538031
264	114732	25	29.589943145448
264	119695	26	29.950046946807
264	125427	27	29.86734175114
264	130337	28	28.706110564712
264	135142	29	29.393795995344
264	140023	30	29.560590097238
264	144846	31	29.82036216564
264	149675	32	29.138715071534
264	154503	33	28.910671621328
264	159388	34	28.85834849088
264	164341	35	29.213700826582
264	169401	36	29.425775802089
264	174256	37	29.615017740917
264	179449	38	28.855381338904
264	184308	39	29.099786244845
264	189597	40	29.338340350753
264	194516	41	29.251269556279
264	199903	42	29.987836287729
264	204289	43	29.158673619851
261	10622	3	26.6
261	14174	4	26.6
261	17567	5	26.6
261	21722	6	26.6
261	25583	7	26.6
261	30044	8	26.6
261	34433	9	26.6
261	39398	10	26.6
261	44138	11	26.6
261	49107	12	26.6
261	53922	13	26.6
261	58709	14	26.6
261	63571	15	26.6
261	68405	16	26.6
261	73306	17	26.6
261	78159	18	26.6
261	83346	19	26.6
261	88143	20	26.6
261	93947	21	26.6
261	98743	22	26.6
261	104063	23	26.6
261	108990	24	26.6
261	114732	25	26.6
261	119695	26	26.6
261	125427	27	26.6
261	130337	28	26.6
261	135142	29	26.6
261	140023	30	26.6
261	144846	31	26.6
261	149675	32	26.6
261	154503	33	26.6
261	159388	34	26.6
261	164341	35	26.6
261	169401	36	26.6
261	174256	37	26.6
261	179449	38	26.6
261	184308	39	26.6
261	189597	40	26.6
261	194516	41	26.6
261	199903	42	26.6
261	204289	43	26.6
260	10622	3	30.1
260	14174	4	59.002454532683
260	17567	5	87.887125226879
260	21722	6	116.78569796844
260	25583	7	145.94603561882
260	30044	8	175.55924063199
260	34433	9	205.20478744912
260	39398	10	234.14896810472
260	44138	11	262.94569248152
260	49107	12	292.103069042
260	53922	13	321.09146525804
260	58709	14	350.47577480602
260	63571	15	379.46108687767
260	68405	16	408.70446114906
260	73306	17	438.02605832242
260	78159	18	467.78382627452
260	83346	19	497.04486214169
260	88143	20	526.85028481877
260	93947	21	555.6234123209
260	98743	22	584.8264298205
260	104063	23	614.74813671405
260	108990	24	644.52595425209
260	114732	25	674.11589739753
260	119695	26	704.06594434434
260	125427	27	733.93328609548
260	130337	28	762.63939666019
260	135142	29	792.03319265554
260	140023	30	821.59378275278
260	144846	31	851.41414491842
260	149675	32	880.55285998995
260	154503	33	909.46353161128
260	159388	34	938.32188010216
260	164341	35	967.53558092874
260	169401	36	996.96135673083
260	174256	37	1026.5763744717
260	179449	38	1055.4317558106
260	184308	39	1084.5315420555
260	189597	40	1113.8698824062
260	194516	41	1143.1211519625
260	199903	42	1173.1089882503
260	204289	43	1202.2676618701
273	25583	7	5.2677325373224
273	30044	8	0.13269666470838
273	34433	9	9.6035274199444
273	39398	10	3.5148841353927
273	44138	11	1.9549857250176
273	49107	12	12.705164959823
273	53922	13	3.8751385374763
273	58709	14	0.973
273	63571	15	5.8923868262398
273	68405	16	9.9983894320018
273	73306	17	5.3609416277726
273	78159	18	0.973
273	83346	19	10.970276187217
273	88143	20	0.45650352195371
273	93947	21	2.0898154020255
273	98743	22	9.1779712364918
273	104063	23	-0.10794786930163
273	108990	24	12.043416719214
273	114732	25	1.1841469301127
273	119695	26	6.4447476029344
273	125427	27	2.8485427514016
273	130337	28	4.8017342690438
273	135142	29	6.5132737999947
273	140023	30	8.4167776120679
273	144846	31	0.973
273	149675	32	4.3565095113275
273	154503	33	6.1414275048752
273	159388	34	6.760887640165
273	164341	35	5.0408826436259
273	169401	36	6.5060647200423
273	174256	37	3.0455512237846
273	179449	38	5.5085409359802
273	184308	39	3.4533651311413
273	189597	40	5.2380341325733
273	194516	41	9.1413005482395
273	199903	42	-0.53362060923304
273	204289	43	4.33587609378
273	209775	44	9.9521773436418
273	213790	45	1.4508406510975
272	25583	7	0.051055015134626
272	30044	8	-0.65960868159309
272	34433	9	0.66083092456683
272	39398	10	-0.18908942027483
272	44138	11	-0.39933900148608
272	49107	12	1.0606184806209
272	53922	13	-0.15617209179327
272	58709	14	-0.85645012233872
272	63571	15	0.15636273922864
272	68405	16	0.69618412260898
272	73306	17	0.048679382796397
272	78159	18	-0.86882390410173
272	83346	19	0.83072016721125
272	88143	20	-0.61994081395678
272	93947	21	-0.37765357359313
272	98743	22	0.60523647433147
272	104063	23	-0.6926102507161
272	108990	24	0.98725445901509
272	114732	25	-0.5166825365508
272	119695	26	0.21999789930414
272	125427	27	-0.27844544721302
272	130337	28	-0.00041340405586965
272	135142	29	0.23193406201899
272	140023	30	0.47361907574814
272	144846	31	-0.86836144533008
272	149675	32	-0.055442073941233
272	154503	33	0.19153367981781
272	159388	34	0.26651096255518
272	164341	35	0.022739579738118
272	169401	36	0.21885793076362
272	174256	37	-0.25751254979987
272	179449	38	0.086619712226092
272	184308	39	-0.19620364045258
272	189597	40	0.054523056535981
272	194516	41	0.57217623617034
272	199903	42	-0.75958725649398
272	204289	43	-0.063591868081129
272	209775	44	0.6930765846977
272	213790	45	-0.48051915690303
269	21722	6	29.449248764175
269	25583	7	29.50030377931
269	30044	8	28.840695097717
269	34433	9	29.501526022283
269	39398	10	29.312436602009
269	44138	11	28.913097600522
269	49107	12	29.973716081143
269	53922	13	29.81754398935
269	58709	14	28.961093867011
269	63571	15	29.11745660624
269	68405	16	29.813640728849
269	73306	17	29.862320111645
269	78159	18	28.993496207544
269	83346	19	29.824216374755
269	88143	20	29.204275560798
269	93947	21	28.826621987205
269	98743	22	29.431858461536
269	104063	23	28.73924821082
269	108990	24	29.726502669835
269	114732	25	29.209820133285
269	119695	26	29.429818032589
269	125427	27	29.151372585376
269	130337	28	29.15095918132
269	135142	29	29.382893243339
269	140023	30	29.856512319087
269	144846	31	28.988150873757
269	149675	32	28.932708799816
269	154503	33	29.124242479634
269	159388	34	29.390753442189
269	164341	35	29.413493021927
269	169401	36	29.63235095269
269	174256	37	29.374838402891
269	179449	38	29.461458115117
269	184308	39	29.265254474664
269	189597	40	29.3197775312
269	194516	41	29.89195376737
269	199903	42	29.132366510876
269	204289	43	29.068774642795
269	209775	44	29.761851227493
269	213790	45	29.28133207059
266	17567	5	26.6
266	21722	6	26.6
266	25583	7	26.6
266	30044	8	26.6
266	34433	9	26.6
266	39398	10	26.6
266	44138	11	26.6
266	49107	12	26.6
266	53922	13	26.6
266	58709	14	26.6
266	63571	15	26.6
266	68405	16	26.6
266	73306	17	26.6
266	78159	18	26.6
266	83346	19	26.6
266	88143	20	26.6
266	93947	21	26.6
266	98743	22	26.6
266	104063	23	26.6
266	108990	24	26.6
266	114732	25	26.6
266	119695	26	26.6
266	125427	27	26.6
266	130337	28	26.6
266	135142	29	26.6
266	140023	30	26.6
266	144846	31	26.6
266	149675	32	26.6
266	154503	33	26.6
266	159388	34	26.6
266	164341	35	26.6
266	169401	36	26.6
266	174256	37	26.6
266	179449	38	26.6
266	184308	39	26.6
266	189597	40	26.6
266	194516	41	26.6
266	199903	42	26.6
266	204289	43	26.6
266	209775	44	26.6
266	213790	45	26.6
265	17567	5	30.1
265	21722	6	59.549248764175
265	25583	7	89.049552543485
265	30044	8	117.8902476412
265	34433	9	147.39177366348
265	39398	10	176.70421026549
265	44138	11	205.61730786602
265	49107	12	235.59102394716
265	53922	13	265.40856793651
265	58709	14	294.36966180352
265	63571	15	323.48711840976
265	68405	16	353.30075913861
265	73306	17	383.16307925025
265	78159	18	412.1565754578
265	83346	19	441.98079183255
265	88143	20	471.18506739335
265	93947	21	500.01168938056
265	98743	22	529.44354784209
265	104063	23	558.18279605291
265	108990	24	587.90929872275
265	114732	25	617.11911885603
265	119695	26	646.54893688862
265	125427	27	675.700309474
265	130337	28	704.85126865532
265	135142	29	734.23416189866
265	140023	30	764.09067421774
265	144846	31	793.0788250915
265	149675	32	822.01153389132
265	154503	33	851.13577637095
265	159388	34	880.52652981314
265	164341	35	909.94002283507
265	169401	36	939.57237378776
265	174256	37	968.94721219065
265	179449	38	998.40867030576
265	184308	39	1027.6739247804
265	189597	40	1056.9937023116
265	194516	41	1086.885656079
265	199903	42	1116.0180225899
265	204289	43	1145.0867972327
265	209775	44	1174.8486484602
265	213790	45	1204.1299805308
278	34433	9	0.99514171334251
278	39398	10	4.8476323921593
278	44138	11	8.8558182643069
278	49107	12	2.1619704195083
278	53922	13	0.18692903953372
278	58709	14	5.3773594987855
278	63571	15	11.389073190315
278	68405	16	1.0001299011831
278	73306	17	6.026011857871
278	78159	18	1.8416550100198
278	83346	19	11.788356664307
278	88143	20	3.0715283656362
278	93947	21	0.60283082974533
278	98743	22	2.7218495049949
278	104063	23	6.9498606006888
278	108990	24	7.7702814581079
278	114732	25	4.8611146319187
278	119695	26	2.3384620837767
278	125427	27	8.9333327712734
278	130337	28	1.4138021321172
278	135142	29	8.0955466938809
278	140023	30	0.87028256538829
278	144846	31	9.4319356673825
278	149675	32	6.7652867393323
278	154503	33	4.2419340014586
278	159388	34	1.056949819469
278	164341	35	2.6837240822331
278	169401	36	2.5227451658039
278	174256	37	13.055270055196
278	179449	38	0.973
278	184308	39	8.0605117486553
278	189597	40	1.5482781684089
278	194516	41	4.5903818516579
278	199903	42	5.5227735789464
278	204289	43	4.7443289797641
278	209775	44	8.996899947397
278	213790	45	8.5906876394689
278	217703	46	1.6760755981484
278	221159	47	7.0811607049259
277	34433	9	-0.54723777670879
277	39398	10	-0.0030056776711724
277	44138	11	0.531623446499
277	49107	12	-0.38636712224688
277	53922	13	-0.65230179026257
277	58709	14	0.089831810584293
277	63571	15	0.88742722736206
277	68405	16	-0.54482844581362
277	73306	17	0.15952467324678
277	78159	18	-0.41893310784362
277	83346	19	0.93356689387001
277	88143	20	-0.26459106374532
277	93947	21	-0.59734858602751
277	98743	22	-0.28668676447123
277	104063	23	0.30625642701052
277	108990	24	0.40119890340138
277	114732	25	-0.00722618417349
277	119695	26	-0.35173226366751
277	125427	27	0.55301648294553
277	130337	28	-0.48486564571503
277	135142	29	0.43865216739941
277	140023	30	-0.559424754465
277	144846	31	0.62162095522508
277	149675	32	0.23791392927524
277	154503	33	-0.10728478701785
277	159388	34	-0.53758376184851
277	164341	35	-0.29853097244631
277	169401	36	-0.31242009387352
277	174256	37	1.1191167210462
277	179449	38	-1.0393600861542
277	184308	39	0.45712423173245
277	189597	40	-0.45515796055551
277	194516	41	-0.016345213633031
277	199903	42	0.11304035428911
277	204289	43	0.0012427440844505
277	209775	44	0.57663498166949
277	213790	45	0.49102716143243
277	217703	46	-0.45461070875172
277	221159	47	0.29037623221521
274	30044	8	29.926273131557
274	34433	9	29.379035354848
274	39398	10	29.376029677177
274	44138	11	29.907653123676
274	49107	12	29.521286001429
274	53922	13	28.868984211166
274	58709	14	28.958816021751
274	63571	15	29.846243249113
274	68405	16	29.301414803299
274	73306	17	29.460939476546
274	78159	18	29.042006368702
274	83346	19	29.975573262572
274	88143	20	29.710982198827
274	93947	21	29.113633612799
274	98743	22	28.826946848328
274	104063	23	29.133203275339
274	108990	24	29.53440217874
274	114732	25	29.527175994567
274	119695	26	29.175443730899
274	125427	27	29.728460213845
274	130337	28	29.24359456813
274	135142	29	29.682246735529
274	140023	30	29.122821981064
274	144846	31	29.744442936289
274	149675	32	29.982356865564
274	154503	33	29.875072078547
274	159388	34	29.337488316698
274	164341	35	29.038957344252
274	169401	36	28.726537250378
274	174256	37	29.845653971424
274	179449	38	28.80629388527
274	184308	39	29.263418117003
274	189597	40	28.808260156447
274	194516	41	28.791914942814
274	199903	42	28.904955297103
274	204289	43	28.906198041188
274	209775	44	29.482833022857
274	213790	45	29.97386018429
274	217703	46	29.519249475538
274	221159	47	29.809625707753
271	25583	7	26.6
271	30044	8	26.6
271	34433	9	26.6
271	39398	10	26.6
271	44138	11	26.6
271	49107	12	26.6
271	53922	13	26.6
271	58709	14	26.6
271	63571	15	26.6
271	68405	16	26.6
271	73306	17	26.6
271	78159	18	26.6
271	83346	19	26.6
271	88143	20	26.6
271	93947	21	26.6
271	98743	22	26.6
271	104063	23	26.6
271	108990	24	26.6
271	114732	25	26.6
271	119695	26	26.6
271	125427	27	26.6
271	130337	28	26.6
271	135142	29	26.6
271	140023	30	26.6
271	144846	31	26.6
271	149675	32	26.6
271	154503	33	26.6
271	159388	34	26.6
271	164341	35	26.6
271	169401	36	26.6
271	174256	37	26.6
271	179449	38	26.6
271	184308	39	26.6
271	189597	40	26.6
271	194516	41	26.6
271	199903	42	26.6
271	204289	43	26.6
271	209775	44	26.6
271	213790	45	26.6
271	217703	46	26.6
271	221159	47	26.6
270	25583	7	30.1
270	30044	8	60.026273131557
270	34433	9	89.405308486405
270	39398	10	118.78133816358
270	44138	11	148.68899128726
270	49107	12	178.21027728869
270	53922	13	207.07926149985
270	58709	14	236.0380775216
270	63571	15	265.88432077072
270	68405	16	295.18573557402
270	73306	17	324.64667505056
270	78159	18	353.68868141926
270	83346	19	383.66425468184
270	88143	20	413.37523688066
270	93947	21	442.48887049346
270	98743	22	471.31581734179
270	104063	23	500.44902061713
270	108990	24	529.98342279587
270	114732	25	559.51059879044
270	119695	26	588.68604252134
270	125427	27	618.41450273518
270	130337	28	647.65809730331
270	135142	29	677.34034403884
270	140023	30	706.4631660199
270	144846	31	736.20760895619
270	149675	32	766.18996582176
270	154503	33	796.0650379003
270	159388	34	825.402526217
270	164341	35	854.44148356125
270	169401	36	883.16802081163
270	174256	37	913.01367478305
270	179449	38	941.81996866833
270	184308	39	971.08338678533
270	189597	40	999.89164694177
270	194516	41	1028.6835618846
270	199903	42	1057.5885171817
270	204289	43	1086.4947152229
270	209775	44	1115.9775482457
270	213790	45	1145.95140843
270	217703	46	1175.4706579056
270	221159	47	1205.2802836133
281	44138	11	7.0586310784247
281	49107	12	0.25219305101062
281	53922	13	4.3863641375449
281	58709	14	8.6395324727576
281	63571	15	2.4200746110697
281	68405	16	2.6787287846063
281	73306	17	9.208001570537
281	78159	18	5.0385927030882
281	83346	19	6.150796841586
281	88143	20	2.1396090691194
281	93947	21	6.4190236331732
281	98743	22	2.5306626069431
281	104063	23	5.2109639126606
281	108990	24	9.90133153221
281	114732	25	3.1097499964098
281	119695	26	0.973
281	125427	27	8.0407221458891
281	130337	28	8.5031600395269
281	135142	29	1.4299014488056
281	140023	30	4.5037533485052
281	144846	31	2.0537125104523
281	149675	32	12.992637233818
281	154503	33	0.973
281	159388	34	4.6433262081967
281	164341	35	14.028625383905
281	169401	36	4.0681632494975
281	174256	37	-0.39201176589876
281	179449	38	10.880152573342
281	184308	39	0.973
281	189597	40	12.233848923463
281	194516	41	3.2385001598888
281	199903	42	6.3643482828949
281	204289	43	3.4778304438344
281	209775	44	2.107730046894
281	213790	45	8.9220244580084
281	217703	46	6.5554491939849
281	221159	47	0.973
281	224644	48	8.7361127593155
281	227633	49	0.83369407744638
280	44138	11	0.29984292276204
280	49107	12	-0.64379078557249
280	53922	13	-0.048707630694842
280	58709	14	0.5311902547488
280	63571	15	-0.33689927542582
280	68405	16	-0.29124714713544
280	73306	17	0.6123890446499
280	78159	18	0.022685112804176
280	83346	19	0.17161213138606
280	88143	20	-0.38063089288771
280	93947	21	0.21707921181805
280	98743	22	-0.32198556761723
280	104063	23	0.057838512188756
280	108990	24	0.68147785400506
280	114732	25	-0.25495720796753
280	119695	26	-0.86232458557933
280	125427	27	0.45930944122374
280	130337	28	0.49629745846614
280	135142	29	-0.48128405609168
280	140023	30	-0.042665331787429
280	144846	31	-0.38121389723383
280	149675	32	1.1082107143244
280	154503	33	-1.1372968461365
280	159388	34	-0.0062609194079428
280	164341	35	1.2438054440077
280	169401	36	-0.13027155993041
280	174256	37	-0.73900400816929
280	179449	38	0.8118677908089
280	184308	39	-1.0412415818544
280	189597	40	1.0025106753921
280	194516	41	-0.23891147545073
280	199903	42	0.18969691263046
280	204289	43	-0.20489069765899
280	209775	44	-0.38623889465816
280	213790	45	0.54804421416484
280	217703	46	0.20831847204827
280	221159	47	-0.87505737438332
280	224644	48	0.530151141854
280	227633	49	-0.56384810579475
279	39398	10	29.261542067118
279	44138	11	29.56138498988
279	49107	12	28.917594204308
279	53922	13	28.868886573613
279	58709	14	29.400076828361
279	63571	15	29.063177552936
279	68405	16	28.7719304058
279	73306	17	29.38431945045
279	78159	18	29.407004563254
279	83346	19	29.57861669464
279	88143	20	29.197985801753
279	93947	21	29.415065013571
279	98743	22	29.093079445953
279	104063	23	29.150917958142
279	108990	24	29.832395812147
279	114732	25	29.57743860418
279	119695	26	28.7151140186
279	125427	27	29.174423459824
279	130337	28	29.67072091829
279	135142	29	29.189436862199
279	140023	30	29.146771530411
279	144846	31	28.765557633177
279	149675	32	29.873768347502
279	154503	33	28.736471501365
279	159388	34	28.730210581957
279	164341	35	29.974016025965
279	169401	36	29.843744466035
279	174256	37	29.104740457865
279	179449	38	29.916608248674
279	184308	39	28.87536666682
279	189597	40	29.877877342212
279	194516	41	29.638965866761
279	199903	42	29.828662779392
279	204289	43	29.623772081733
279	209775	44	29.237533187075
279	213790	45	29.785577401239
279	217703	46	29.993895873288
279	221159	47	29.118838498904
279	224644	48	29.648989640758
279	227633	49	29.085141534964
276	34433	9	26.6
276	39398	10	26.6
276	44138	11	26.6
276	49107	12	26.6
276	53922	13	26.6
276	58709	14	26.6
276	63571	15	26.6
276	68405	16	26.6
276	73306	17	26.6
[...]
142	774	0.133114886323	85
142	1214	0.253101906203	85
142	1477	0.260495979479	85
142	1739	0.27705205585	85
142	1970	0.331098214408	85
142	2092	0.357844711211	85
142	2500	0.447334088987	85
142	3178	0.567498486039	85
143	774	0.133114886323	1
143	774	0.133114886323	0
143	1214	0.253101906203	1
143	1214	0.253101906203	0
143	1477	0.260495979479	1
143	1477	0.260495979479	0
143	1739	0.27705205585	1
143	1739	0.27705205585	0
143	1970	0.331098214408	1
143	1970	0.331098214408	0
143	2092	0.357844711211	1
143	2092	0.357844711211	0
143	2500	0.447334088987	1
143	2500	0.447334088987	0
143	3178	0.567498486039	1
143	3178	0.567498486039	0
144	774	0.133114886323	85
144	1214	0.253101906203	85
144	1477	0.260495979479	85
144	1739	0.27705205585	85
144	1970	0.331098214408	85
144	2092	0.357844711211	85
144	2500	0.447334088987	85
144	3178	0.567498486039	85
145	774	0.133114886323	0
145	1214	0.253101906203	0
145	1477	0.260495979479	0
145	1739	0.27705205585	0
145	1970	0.331098214408	0
145	2092	0.357844711211	0
145	2500	0.447334088987	0
145	3178	0.567498486039	0
146	785	0.133122326323	85
146	1267	0.253125386203	85
146	1535	0.260519459479	85
146	1750	0.27705949585	85
146	1981	0.331105654408	85
146	2103	0.357852151211	85
146	2617	0.447372648987	85
146	2636	0.447381048987	85
146	2657	0.447389448987	85
146	2678	0.447397848987	85
146	2698	0.447406248987	85
146	3189	0.567505926039	85
147	786	0.133122326323	85
147	1226	0.253109346203	85
147	1491	0.260503419479	85
147	1751	0.27705949585	85
147	1982	0.331105654408	85
147	2104	0.357852151211	85
147	2512	0.447341528987	85
147	3190	0.567505926039	85
148	787	0.133122426323	85
148	1269	0.253125486203	85
148	1537	0.260519559479	85
148	1752	0.27705959585	85
148	1983	0.331105754408	85
148	2105	0.357852251211	85
148	2618	0.447372748987	85
148	2637	0.447381148987	85
148	2658	0.447389548987	85
148	2679	0.447397948987	85
148	2699	0.447406348987	85
148	3191	0.567506026039	85
149	787	0.133122426323	85
149	1269	0.253125486203	85
149	1537	0.260519559479	85
149	1752	0.27705959585	85
149	1983	0.331105754408	85
149	2105	0.357852251211	85
149	2618	0.447372748987	85
149	2637	0.447381148987	85
149	2658	0.447389548987	85
149	2679	0.447397948987	85
149	2699	0.447406348987	85
149	3191	0.567506026039	85
150	788	0.133122426323	85
150	1230	0.253109446203	85
150	1495	0.260503519479	85
150	1753	0.27705959585	85
150	1984	0.331105754408	85
150	2106	0.357852251211	85
150	2516	0.447341628987	85
150	3192	0.567506026039	85
151	788	0.133122426323	85
151	1230	0.253109446203	85
151	1495	0.260503519479	85
151	1753	0.27705959585	85
151	1984	0.331105754408	85
151	2106	0.357852251211	85
151	2516	0.447341628987	85
151	3192	0.567506026039	85
152	791	0.133122426323	64
152	1237	0.253109446203	64
152	1502	0.260503519479	64
152	1756	0.27705959585	64
152	1989	0.331105754408	64
152	2111	0.357852251211	64
152	2524	0.447341628987	64
152	3197	0.567506026039	64
153	791	0.133122426323	64
153	1237	0.253109446203	64
153	1502	0.260503519479	64
153	1756	0.27705959585	64
154	792	0.133122426323	64
154	1239	0.253109446203	64
154	1505	0.260503519479	64
154	1757	0.27705959585	64
155	793	0.133122426323	85
155	1241	0.253109446203	85
155	1508	0.260503519479	85
155	1758	0.27705959585	85
156	793	0.133122426323	85
156	1241	0.253109446203	85
156	1508	0.260503519479	85
156	1758	0.27705959585	85
157	793	0.133122426323	1
157	793	0.133122426323	0
157	1241	0.253109446203	1
157	1241	0.253109446203	0
157	1508	0.260503519479	1
157	1508	0.260503519479	0
157	1758	0.27705959585	1
157	1758	0.27705959585	0
158	793	0.133122426323	85
158	1241	0.253109446203	85
158	1508	0.260503519479	85
158	1758	0.27705959585	85
159	793	0.133122426323	0
159	1241	0.253109446203	0
159	1508	0.260503519479	0
159	1758	0.27705959585	0
160	799	0.133130826323	85
160	1253	0.253117846203	85
160	1520	0.260511919479	85
160	1764	0.27706799585	85
161	800	0.133130926323	85
161	1255	0.253117946203	85
161	1522	0.260512019479	85
161	1765	0.27706809585	85
162	800	0.133130926323	85
162	1255	0.253117946203	85
162	1522	0.260512019479	85
162	1765	0.27706809585	85
163	802	0.133130926323	85
163	1215	0.253101906203	85
163	1478	0.260495979479	85
163	1767	0.27706809585	85
163	2023	0.331129334408	85
163	2043	0.331137734408	85
163	2145	0.357875831211	85
163	2165	0.357884231211	85
163	2501	0.447334088987	85
163	3260	0.567544686039	85
163	3280	0.567553086039	85
164	802	0.133130926323	85
164	1215	0.253101906203	85
164	1478	0.260495979479	85
164	1767	0.27706809585	85
164	2023	0.331129334408	85
164	2043	0.331137734408	85
164	2145	0.357875831211	85
164	2165	0.357884231211	85
164	2501	0.447334088987	85
164	3260	0.567544686039	85
164	3280	0.567553086039	85
165	802	0.133130926323	1
165	802	0.133130926323	0
165	1215	0.253101906203	1
165	1215	0.253101906203	0
165	1478	0.260495979479	1
165	1478	0.260495979479	0
165	1767	0.27706809585	1
165	1767	0.27706809585	0
165	2023	0.331129334408	1
165	2023	0.331129334408	0
165	2043	0.331137734408	1
165	2043	0.331137734408	0
165	2145	0.357875831211	1
165	2145	0.357875831211	0
165	2165	0.357884231211	1
165	2165	0.357884231211	0
165	2501	0.447334088987	1
165	2501	0.447334088987	0
165	3260	0.567544686039	1
165	3260	0.567544686039	0
165	3280	0.567553086039	1
165	3280	0.567553086039	0
166	802	0.133130926323	85
166	1215	0.253101906203	85
166	1478	0.260495979479	85
166	1767	0.27706809585	85
166	2023	0.331129334408	85
166	2043	0.331137734408	85
166	2145	0.357875831211	85
166	2165	0.357884231211	85
166	2501	0.447334088987	85
166	3260	0.567544686039	85
166	3280	0.567553086039	85
167	802	0.133130926323	0
167	1215	0.253101906203	0
167	1478	0.260495979479	0
167	1767	0.27706809585	0
167	2023	0.331129334408	0
167	2043	0.331137734408	0
167	2145	0.357875831211	0
167	2165	0.357884231211	0
167	2501	0.447334088987	0
167	3260	0.567544686039	0
167	3280	0.567553086039	0
168	806	0.133138366323	85
168	1227	0.253109346203	85
168	1492	0.260503419479	85
168	1771	0.27707553585	85
168	2034	0.331136774408	85
168	2052	0.331145174408	85
168	2156	0.357883271211	85
168	2174	0.357891671211	85
168	2513	0.447341528987	85
168	3271	0.567552126039	85
168	3289	0.567560526039	85
169	807	0.133138466323	85
169	1231	0.253109446203	85
169	1496	0.260503519479	85
169	1772	0.27707563585	85
169	2035	0.331136874408	85
169	2053	0.331145274408	85
169	2157	0.357883371211	85
169	2175	0.357891771211	85
169	2517	0.447341628987	85
169	3272	0.567552226039	85
169	3290	0.567560626039	85
170	807	0.133138466323	85
170	1231	0.253109446203	85
170	1496	0.260503519479	85
170	1772	0.27707563585	85
170	2035	0.331136874408	85
170	2053	0.331145274408	85
170	2157	0.357883371211	85
170	2175	0.357891771211	85
170	2517	0.447341628987	85
170	3272	0.567552226039	85
170	3290	0.567560626039	85
171	999	0.202940167398	85
171	1455	0.260488439479	85
171	2522	0.447341628987	85
171	2848	0.479982388364	85
171	2868	0.479990788364	85
171	3671	0.67389994166	85
171	3691	0.67390834166	85
172	999	0.202940167398	85
172	1455	0.260488439479	85
172	2522	0.447341628987	85
172	2848	0.479982388364	85
172	2868	0.479990788364	85
172	3671	0.67389994166	85
172	3691	0.67390834166	85
173	999	0.202940167398	1
173	999	0.202940167398	0
173	1455	0.260488439479	1
173	1455	0.260488439479	0
173	2522	0.447341628987	1
173	2522	0.447341628987	0
173	2848	0.479982388364	1
173	2848	0.479982388364	0
173	2868	0.479990788364	1
173	2868	0.479990788364	0
173	3671	0.67389994166	1
173	3671	0.67389994166	0
173	3691	0.67390834166	1
173	3691	0.67390834166	0
174	999	0.202940167398	85
174	1455	0.260488439479	85
174	2522	0.447341628987	85
174	2848	0.479982388364	85
174	2868	0.479990788364	85
174	3671	0.67389994166	85
174	3691	0.67390834166	85
175	999	0.202940167398	0
175	1455	0.260488439479	0
175	2522	0.447341628987	0
175	2848	0.479982388364	0
175	2868	0.479990788364	0
175	3671	0.67389994166	0
175	3691	0.67390834166	0
176	1000	0.202940167398	85
176	1272	0.253125486203	85
176	1273	0.253125486203	85
176	1456	0.260488439479	85
176	1988	0.331105754408	85
176	2110	0.357852251211	85
176	2620	0.447372748987	85
176	2640	0.447381148987	85
176	2661	0.447389548987	85
176	2682	0.447397948987	85
176	2702	0.447406348987	85
176	3196	0.567506026039	85
176	3622	0.67386882166	85
177	1000	0.202940167398	85
177	1272	0.253125486203	85
177	1273	0.253125486203	85
177	1456	0.260488439479	85
177	1988	0.331105754408	85
177	2110	0.357852251211	85
177	2620	0.447372748987	85
177	2640	0.447381148987	85
177	2661	0.447389548987	85
177	2682	0.447397948987	85
177	2702	0.447406348987	85
177	3196	0.567506026039	85
177	3622	0.67386882166	85
178	1000	0.202940167398	1
178	1000	0.202940167398	0
178	1272	0.253125486203	1
178	1272	0.253125486203	0
178	1273	0.253125486203	1
178	1279	0.253132926203	0
178	1456	0.260488439479	1
178	1456	0.260488439479	0
178	1988	0.331105754408	1
178	1988	0.331105754408	0
178	2110	0.357852251211	1
178	2110	0.357852251211	0
178	2620	0.447372748987	1
178	2620	0.447372748987	0
178	2640	0.447381148987	1
178	2640	0.447381148987	0
178	2661	0.447389548987	1
178	2661	0.447389548987	0
178	2682	0.447397948987	1
178	2682	0.447397948987	0
178	2702	0.447406348987	1
178	2702	0.447406348987	0
178	3196	0.567506026039	1
178	3196	0.567506026039	0
178	3622	0.67386882166	1
178	3622	0.67386882166	0
179	1000	0.202940167398	85
179	1272	0.253125486203	85
179	1279	0.253132926203	85
179	1456	0.260488439479	85
179	1988	0.331105754408	85
179	2110	0.357852251211	85
179	2620	0.447372748987	85
179	2640	0.447381148987	85
179	2661	0.447389548987	85
179	2682	0.447397948987	85
179	2702	0.447406348987	85
179	3196	0.567506026039	85
179	3622	0.67386882166	85
180	1000	0.202940167398	0
180	1272	0.253125486203	0
180	1279	0.253132926203	7.44e-006
180	1456	0.260488439479	0
180	1988	0.331105754408	0
180	2110	0.357852251211	0
180	2620	0.447372748987	0
180	2640	0.447381148987	0
180	2661	0.447389548987	0
180	2682	0.447397948987	0
180	2702	0.447406348987	0
180	3196	0.567506026039	0
180	3622	0.67386882166	0
181	1009	0.202947607398	85
181	1465	0.260495879479	85
181	2540	0.447349068987	85
181	2859	0.479989828364	85
181	2877	0.479998228364	85
181	3682	0.67390738166	85
181	3700	0.67391578166	85
182	1010	0.202947607398	85
182	1279	0.253132926203	85
182	1286	0.253141326203	85
182	1466	0.260495879479	85
182	1997	0.331113194408	85
182	2119	0.357859691211	85
182	2632	0.447380188987	85
182	2653	0.447388588987	85
182	2674	0.447396988987	85
182	2694	0.447405388987	85
182	2707	0.447413788987	85
182	3205	0.567513466039	85
182	3630	0.67387626166	85
183	1012	0.202947707398	85
183	1468	0.260495979479	85
183	2544	0.447349168987	85
183	2860	0.479989928364	85
183	2878	0.479998328364	85
183	3683	0.67390748166	85
183	3701	0.67391588166	85
184	1012	0.202947707398	85
184	1468	0.260495979479	85
184	2544	0.447349168987	85
184	2860	0.479989928364	85
184	2878	0.479998328364	85
184	3683	0.67390748166	85
184	3701	0.67391588166	85
185	1013	0.202947707398	85
185	1280	0.253133026203	85
185	1287	0.253141426203	85
185	1469	0.260495979479	85
185	1999	0.331113294408	85
185	2121	0.357859791211	85
185	2633	0.447380288987	85
185	2654	0.447388688987	85
185	2675	0.447397088987	85
185	2695	0.447405488987	85
185	2708	0.447413888987	85
185	3207	0.567513566039	85
185	3632	0.67387636166	85
186	1013	0.202947707398	85
186	1280	0.253133026203	85
186	1287	0.253141426203	85
186	1469	0.260495979479	85
186	1999	0.331113294408	85
186	2121	0.357859791211	85
186	2633	0.447380288987	85
186	2654	0.447388688987	85
186	2675	0.447397088987	85
186	2695	0.447405488987	85
186	2708	0.447413888987	85
186	3207	0.567513566039	85
186	3632	0.67387636166	85
187	1038	0.202963747398	85
187	1213	0.253101906203	85
187	1305	0.253157466203	85
187	1561	0.260527099479	85
187	1562	0.260527099479	85
187	1583	0.260535499479	85
187	2499	0.447334088987	85
187	2811	0.479958808364	85
187	3211	0.567513566039	85
187	3605	0.67386128166	85
188	1038	0.202963747398	85
188	1213	0.253101906203	85
188	1305	0.253157466203	85
188	1561	0.260527099479	85
188	1562	0.260527099479	85
188	1583	0.260535499479	85
188	2499	0.447334088987	85
188	2811	0.479958808364	85
188	3211	0.567513566039	85
188	3605	0.67386128166	85
189	1038	0.202963747398	1
189	1038	0.202963747398	0
189	1213	0.253101906203	1
189	1213	0.253101906203	0
189	1305	0.253157466203	1
189	1305	0.253157466203	0
189	1561	0.260527099479	1
189	1561	0.260527099479	0
189	1562	0.260527099479	1
189	1575	0.260534539479	0
189	1583	0.260535499479	1
189	1588	0.260542939479	0
189	2499	0.447334088987	1
189	2499	0.447334088987	0
189	2811	0.479958808364	1
189	2811	0.479958808364	0
189	3211	0.567513566039	1
189	3211	0.567513566039	0
189	3605	0.67386128166	1
189	3605	0.67386128166	0
190	1038	0.202963747398	85
190	1213	0.253101906203	85
190	1305	0.253157466203	85
190	1561	0.260527099479	85
190	1575	0.260534539479	85
190	1588	0.260542939479	85
190	2499	0.447334088987	85
190	2811	0.479958808364	85
190	3211	0.567513566039	85
190	3605	0.67386128166	85
191	1038	0.202963747398	0
191	1213	0.253101906203	0
191	1305	0.253157466203	0
191	1561	0.260527099479	0
191	1575	0.260534539479	7.44e-006
191	1588	0.260542939479	7.44e-006
191	2499	0.447334088987	0
191	2811	0.479958808364	0
191	3211	0.567513566039	0
191	3605	0.67386128166	0
192	1042	0.202971187398	85
192	1225	0.253109346203	85
192	1309	0.253164906203	85
192	1575	0.260534539479	85
192	1588	0.260542939479	85
192	1595	0.260551339479	85
192	2511	0.447341528987	85
192	2821	0.479966248364	85
192	3220	0.567521006039	85
192	3615	0.67386872166	85
193	1043	0.202971287398	85
193	1229	0.253109446203	85
193	1310	0.253165006203	85
193	1576	0.260534639479	85
193	1589	0.260543039479	85
193	1596	0.260551439479	85
193	2515	0.447341628987	85
193	2823	0.479966348364	85
193	3222	0.567521106039	85
193	3617	0.67386882166	85
194	1043	0.202971287398	85
194	1229	0.253109446203	85
194	1310	0.253165006203	85
194	1576	0.260534639479	85
194	1589	0.260543039479	85
194	1596	0.260551439479	85
194	2515	0.447341628987	85
194	2823	0.479966348364	85
194	3222	0.567521106039	85
194	3617	0.67386882166	85
195	1363	0.25727511594	85
195	2790	0.479951268364	85
195	3584	0.67385374166	85
196	1363	0.25727511594	85
196	2790	0.479951268364	85
196	3584	0.67385374166	85
197	1363	0.25727511594	1
197	1363	0.25727511594	0
197	2790	0.479951268364	1
197	2790	0.479951268364	0
197	3584	0.67385374166	1
197	3584	0.67385374166	0
198	1363	0.25727511594	85
198	2790	0.479951268364	85
198	3584	0.67385374166	85
199	1363	0.25727511594	0
199	2790	0.479951268364	0
199	3584	0.67385374166	0
200	1364	0.25727511594	85
200	2791	0.479951268364	85
200	3585	0.67385374166	85
201	1364	0.25727511594	85
201	2791	0.479951268364	85
201	3585	0.67385374166	85
202	1364	0.25727511594	1
202	1364	0.25727511594	0
202	2791	0.479951268364	1
202	2791	0.479951268364	0
202	3585	0.67385374166	1
202	3585	0.67385374166	0
203	1364	0.25727511594	85
203	2791	0.479951268364	85
203	3585	0.67385374166	85
204	1364	0.25727511594	0
204	2791	0.479951268364	0
204	3585	0.67385374166	0
205	1365	0.25727511594	85
205	1540	0.260519559479	85
205	1569	0.260527959479	85
205	2792	0.479951268364	85
205	3586	0.67385374166	85
206	1365	0.25727511594	85
206	1540	0.260519559479	85
206	1569	0.260527959479	85
206	2792	0.479951268364	85
206	3586	0.67385374166	85
207	1365	0.25727511594	1
207	1365	0.25727511594	0
207	1540	0.260519559479	1
207	1540	0.260519559479	0
207	1569	0.260527959479	1
207	1569	0.260527959479	0
207	2792	0.479951268364	1
207	2792	0.479951268364	0
207	3586	0.67385374166	1
207	3586	0.67385374166	0
208	1365	0.25727511594	85
208	1540	0.260519559479	85
208	1569	0.260527959479	85
208	2792	0.479951268364	85
208	3586	0.67385374166	85
209	1365	0.25727511594	0
209	1540	0.260519559479	0
209	1569	0.260527959479	0
209	2792	0.479951268364	0
209	3586	0.67385374166	0
210	1373	0.25728255594	85
210	2800	0.479958708364	85
210	3594	0.67386118166	85
211	1374	0.25728255594	85
211	2801	0.479958708364	85
211	3595	0.67386118166	85
212	1375	0.25728255594	85
212	1555	0.260526999479	85
212	1579	0.260535399479	85
212	2802	0.479958708364	85
212	3596	0.67386118166	85
213	1376	0.25728265594	85
213	2803	0.479958808364	85
213	3597	0.67386128166	85
214	1376	0.25728265594	85
214	2803	0.479958808364	85
214	3597	0.67386128166	85
215	1377	0.25728265594	85
215	2804	0.479958808364	85
215	3598	0.67386128166	85
216	1377	0.25728265594	85
216	2804	0.479958808364	85
216	3598	0.67386128166	85
217	1378	0.25728265594	85
217	1557	0.260527099479	85
217	1580	0.260535499479	85
217	2805	0.479958808364	85
217	3599	0.67386128166	85
218	1378	0.25728265594	85
218	1557	0.260527099479	85
218	1580	0.260535499479	85
218	2805	0.479958808364	85
218	3599	0.67386128166	85
219	1382	0.25728265594	64
219	2809	0.479958808364	64
219	3603	0.67386128166	64
220	1382	0.25728265594	64
221	1383	0.25728265594	64
221	2810	0.479958808364	64
221	3604	0.67386128166	64
222	1383	0.25728265594	64
223	1384	0.25728265594	64
224	1385	0.25728265594	64
225	1386	0.25728265594	85
226	1386	0.25728265594	85
227	1386	0.25728265594	1
227	1386	0.25728265594	0
228	1386	0.25728265594	85
229	1386	0.25728265594	0
230	1387	0.25728265594	85
231	1387	0.25728265594	85
232	1387	0.25728265594	1
232	1387	0.25728265594	0
233	1387	0.25728265594	85
234	1387	0.25728265594	0
235	1396	0.25729105594	85
236	1397	0.25729105594	85
237	1398	0.25729115594	85
238	1398	0.25729115594	85
239	1399	0.25729115594	85
240	1399	0.25729115594	85
241	1402	0.25729115594	85
241	1403	0.25729115594	85
242	1402	0.25729115594	85
242	1403	0.25729115594	85
243	1402	0.25729115594	1
243	1402	0.25729115594	0
243	1403	0.25729115594	1
243	1409	0.25729859594	0
244	1402	0.25729115594	85
244	1409	0.25729859594	85
245	1402	0.25729115594	0
245	1409	0.25729859594	7.44e-006
246	1409	0.25729859594	85
246	1421	0.25730699594	85
247	1410	0.25729869594	85
247	1422	0.25730709594	85
248	1410	0.25729869594	85
248	1422	0.25730709594	85
249	1412	0.25729869594	85
249	1425	0.25730709594	85
249	1474	0.260495979479	85
249	2862	0.479989928364	85
249	2881	0.479998328364	85
249	3685	0.67390748166	85
249	3704	0.67391588166	85
250	1412	0.25729869594	85
250	1425	0.25730709594	85
250	1474	0.260495979479	85
250	2862	0.479989928364	85
250	2881	0.479998328364	85
250	3685	0.67390748166	85
250	3704	0.67391588166	85
251	1412	0.25729869594	1
251	1412	0.25729869594	0
251	1425	0.25730709594	1
251	1425	0.25730709594	0
251	1474	0.260495979479	1
251	1474	0.260495979479	0
251	2862	0.479989928364	1
251	2862	0.479989928364	0
251	2881	0.479998328364	1
251	2881	0.479998328364	0
251	3685	0.67390748166	1
251	3685	0.67390748166	0
251	3704	0.67391588166	1
251	3704	0.67391588166	0
252	1412	0.25729869594	85
252	1425	0.25730709594	85
252	1474	0.260495979479	85
252	2862	0.479989928364	85
252	2881	0.479998328364	85
252	3685	0.67390748166	85
252	3704	0.67391588166	85
253	1412	0.25729869594	0
253	1425	0.25730709594	0
253	1474	0.260495979479	0
253	2862	0.479989928364	0
253	2881	0.479998328364	0
253	3685	0.67390748166	0
253	3704	0.67391588166	0
254	1417	0.25730613594	85
254	1430	0.25731453594	85
254	1489	0.260503419479	85
254	2873	0.479997368364	85
254	2886	0.480005768364	85
254	3696	0.67391492166	85
254	3709	0.67392332166	85
255	1418	0.25730623594	85
255	1431	0.25731463594	85
255	1493	0.260503519479	85
255	2874	0.479997468364	85
255	2887	0.480005868364	85
255	3697	0.67391502166	85
255	3710	0.67392342166	85
256	1418	0.25730623594	85
256	1431	0.25731463594	85
256	1493	0.260503519479	85
256	2874	0.479997468364	85
256	2887	0.480005868364	85
256	3697	0.67391502166	85
256	3710	0.67392342166	85

