file 39069309 1624440247                                        
version 2
run Default-0-20210623-18:23:52-4284
attr configname Default
attr datetime 20210623-18:23:52
attr experiment Default
attr inifile omnetpp.ini
attr iterationvars ""
attr iterationvarsf ""
attr measurement ""
attr network SolutionNetwork
attr processid 4284
attr repetition 0
attr replication #0
attr resultdir results
attr runnumber 0
attr seedset 4284
param *.playgroundSizeX 2600m
param *.playgroundSizeY 2500m
param *.playgroundSizeZ 50m
param *.annotations.draw true
param *.obstacles.debug false
param *.manager.updateInterval 1s
param *.manager.host "\"localhost\""
param *.manager.port 9999
param *.manager.autoShutdown true
param *.manager.launchConfig "xmldoc(\"Solutions.launchd.xml\")"
param *.rsu[0].mobility.x 250
param *.rsu[0].mobility.y 100
param *.rsu[0].mobility.z 0
param *.rsu[1].mobility.x 750
param *.rsu[1].mobility.y 100
param *.rsu[1].mobility.z 0
param *.rsu[2].mobility.x 1250
param *.rsu[2].mobility.y 100
param *.rsu[2].mobility.z 0
param *.rsu[3].mobility.x 1750
param *.rsu[3].mobility.y 100
param *.rsu[3].mobility.z 0
param *.rsu[4].mobility.x 2250
param *.rsu[4].mobility.y 100
param *.rsu[4].mobility.z 0
param *.rsu[*].applType "\"RSUClusterAppOriginal\""
param *.rsu[*].appl.headerLength "80 bit"
param *.rsu[*].appl.sendBeacons true
param *.rsu[*].appl.dataOnSch false
param *.rsu[*].appl.beaconInterval 0s
param *.rsu[*].appl.beaconUserPriority 7
param *.rsu[*].appl.dataUserPriority 5
param *.rsu[*].nic.phy80211p.antennaOffsetZ "0 m"
param *.connectionManager.sendDirect true
param *.connectionManager.maxInterfDist 2600m
param *.connectionManager.drawMaxIntfDist false
param *.**.nic.mac1609_4.useServiceChannel false
param *.**.nic.mac1609_4.txPower 50mW
param *.**.nic.mac1609_4.bitrate 12Mbps
param *.**.nic.phy80211p.minPowerLevel -110dBm
param *.**.nic.phy80211p.allowTxDuringRx true
param *.**.nic.phy80211p.useNoiseFloor true
param *.**.nic.phy80211p.noiseFloor -98dBm
param *.**.nic.phy80211p.decider "xmldoc(\"config.xml\")"
param *.**.nic.phy80211p.analogueModels "xmldoc(\"config.xml\")"
param *.**.nic.phy80211p.usePropagationDelay true
param *.**.nic.phy80211p.antenna "xmldoc(\"antenna.xml\", \"/root/Antenna[@id='monopole']\")"
param *.node[*].nic.phy80211p.antennaOffsetY "0 m"
param *.node[*].nic.phy80211p.antennaOffsetZ "1.895 m"
param *.node[*].applType "\"VehicleApp\""
param *.node[*].appl.headerLength "80 bit"
param *.node[*].appl.sendBeacons false
param *.node[*].appl.dataOnSch false
param *.node[*].appl.beaconInterval 1s
param *.node[*].veinsmobility.x 0
param *.node[*].veinsmobility.y 0
param *.node[*].veinsmobility.z 0
param *.node[*].veinsmobility.setHostSpeed false
param *.node[*0].veinsmobility.accidentCount 0
param *.node[*0].veinsmobility.accidentStart 73s
param *.node[*0].veinsmobility.accidentDuration 50s
param *.ES0.srv.ClockFrequency 4
param *.ES1.srv.ClockFrequency 5
param *.ES2.srv.ClockFrequency 7
param *.ES3.srv.ClockFrequency 5
param *.ES4.srv.ClockFrequency 4
param *.ES5.srv.ClockFrequency 7
param *.ES6.srv.ClockFrequency 5
param *.ES7.srv.ClockFrequency 4

vector 0 SolutionNetwork.rsu[0].eth.encap encapPk:vector(packetBytes) ETV
attr interpolationmode none
attr source encapPk
attr title "packets encapsulated, vector(packetBytes)"
vector 1 SolutionNetwork.rsu[1].eth.encap encapPk:vector(packetBytes) ETV
attr interpolationmode none
attr source encapPk
attr title "packets encapsulated, vector(packetBytes)"
vector 2 SolutionNetwork.rsu[2].eth.encap encapPk:vector(packetBytes) ETV
attr interpolationmode none
attr source encapPk
attr title "packets encapsulated, vector(packetBytes)"
vector 3 SolutionNetwork.rsu[3].eth.encap encapPk:vector(packetBytes) ETV
attr interpolationmode none
attr source encapPk
attr title "packets encapsulated, vector(packetBytes)"
vector 4 SolutionNetwork.rsu[4].eth.encap encapPk:vector(packetBytes) ETV
attr interpolationmode none
attr source encapPk
attr title "packets encapsulated, vector(packetBytes)"
vector 5 SolutionNetwork.rsu[0].eth.mac packetReceivedFromUpper:vector(packetBytes) ETV
attr interpolationmode none
attr source packetReceivedFromUpper
attr title "packet bytes from higher layer, vector(packetBytes)"
vector 6 SolutionNetwork.rsu[0].eth.mac.queue packetPushed:vector(packetBytes) ETV
attr interpolationmode none
attr title "packet pushed, vector(packetBytes)"
vector 7 SolutionNetwork.rsu[0].eth.mac.queue queueLength:vector ETV
attr interpolationmode sample-hold
attr source "count(packetPushed) - count(packetPopped) - count(packetRemoved) - count(packetDropped)"
attr title "queue length, vector"
vector 8 SolutionNetwork.rsu[0].eth.mac.queue packetPopped:vector(packetBytes) ETV
attr interpolationmode none
attr title "packet popped, vector(packetBytes)"
vector 9 SolutionNetwork.rsu[0].eth.mac.queue queueingTime:vector ETV
attr interpolationmode none
attr source queueingTime(packetPopped)
attr title "queueing times, vector"
attr unit s
vector 10 SolutionNetwork.rsu[1].eth.mac packetReceivedFromUpper:vector(packetBytes) ETV
attr interpolationmode none
attr source packetReceivedFromUpper
attr title "packet bytes from higher layer, vector(packetBytes)"
vector 11 SolutionNetwork.rsu[1].eth.mac.queue packetPushed:vector(packetBytes) ETV
attr interpolationmode none
attr title "packet pushed, vector(packetBytes)"
vector 12 SolutionNetwork.rsu[1].eth.mac.queue queueLength:vector ETV
attr interpolationmode sample-hold
attr source "count(packetPushed) - count(packetPopped) - count(packetRemoved) - count(packetDropped)"
attr title "queue length, vector"
vector 13 SolutionNetwork.rsu[1].eth.mac.queue packetPopped:vector(packetBytes) ETV
attr interpolationmode none
attr title "packet popped, vector(packetBytes)"
vector 14 SolutionNetwork.rsu[1].eth.mac.queue queueingTime:vector ETV
attr interpolationmode none
attr source queueingTime(packetPopped)
attr title "queueing times, vector"
attr unit s
vector 15 SolutionNetwork.rsu[2].eth.mac packetReceivedFromUpper:vector(packetBytes) ETV
attr interpolationmode none
attr source packetReceivedFromUpper
attr title "packet bytes from higher layer, vector(packetBytes)"
vector 16 SolutionNetwork.rsu[2].eth.mac.queue packetPushed:vector(packetBytes) ETV
attr interpolationmode none
attr title "packet pushed, vector(packetBytes)"
vector 17 SolutionNetwork.rsu[2].eth.mac.queue queueLength:vector ETV
attr interpolationmode sample-hold
attr source "count(packetPushed) - count(packetPopped) - count(packetRemoved) - count(packetDropped)"
attr title "queue length, vector"
vector 18 SolutionNetwork.rsu[2].eth.mac.queue packetPopped:vector(packetBytes) ETV
attr interpolationmode none
attr title "packet popped, vector(packetBytes)"
vector 19 SolutionNetwork.rsu[2].eth.mac.queue queueingTime:vector ETV
attr interpolationmode none
attr source queueingTime(packetPopped)
attr title "queueing times, vector"
attr unit s
vector 20 SolutionNetwork.rsu[3].eth.mac packetReceivedFromUpper:vector(packetBytes) ETV
attr interpolationmode none
attr source packetReceivedFromUpper
attr title "packet bytes from higher layer, vector(packetBytes)"
vector 21 SolutionNetwork.rsu[3].eth.mac.queue packetPushed:vector(packetBytes) ETV
attr interpolationmode none
attr title "packet pushed, vector(packetBytes)"
vector 22 SolutionNetwork.rsu[3].eth.mac.queue queueLength:vector ETV
attr interpolationmode sample-hold
attr source "count(packetPushed) - count(packetPopped) - count(packetRemoved) - count(packetDropped)"
attr title "queue length, vector"
vector 23 SolutionNetwork.rsu[3].eth.mac.queue packetPopped:vector(packetBytes) ETV
attr interpolationmode none
attr title "packet popped, vector(packetBytes)"
vector 24 SolutionNetwork.rsu[3].eth.mac.queue queueingTime:vector ETV
attr interpolationmode none
attr source queueingTime(packetPopped)
attr title "queueing times, vector"
attr unit s
vector 25 SolutionNetwork.rsu[4].eth.mac packetReceivedFromUpper:vector(packetBytes) ETV
attr interpolationmode none
attr source packetReceivedFromUpper
attr title "packet bytes from higher layer, vector(packetBytes)"
vector 26 SolutionNetwork.rsu[4].eth.mac.queue packetPushed:vector(packetBytes) ETV
attr interpolationmode none
attr title "packet pushed, vector(packetBytes)"
vector 27 SolutionNetwork.rsu[4].eth.mac.queue queueLength:vector ETV
attr interpolationmode sample-hold
attr source "count(packetPushed) - count(packetPopped) - count(packetRemoved) - count(packetDropped)"
attr title "queue length, vector"
vector 28 SolutionNetwork.rsu[4].eth.mac.queue packetPopped:vector(packetBytes) ETV
attr interpolationmode none
attr title "packet popped, vector(packetBytes)"
vector 29 SolutionNetwork.rsu[4].eth.mac.queue queueingTime:vector ETV
attr interpolationmode none
attr source queueingTime(packetPopped)
attr title "queueing times, vector"
attr unit s
vector 30 SolutionNetwork.rsu[0].eth.mac txPk:vector(packetBytes) ETV
attr interpolationmode none
attr source packetSentToLower
attr title "packets transmitted, vector(packetBytes)"
vector 31 SolutionNetwork.rsu[1].eth.mac txPk:vector(packetBytes) ETV
attr interpolationmode none
attr source packetSentToLower
attr title "packets transmitted, vector(packetBytes)"
vector 32 SolutionNetwork.rsu[2].eth.mac txPk:vector(packetBytes) ETV
attr interpolationmode none
attr source packetSentToLower
attr title "packets transmitted, vector(packetBytes)"
vector 33 SolutionNetwork.rsu[3].eth.mac txPk:vector(packetBytes) ETV
attr interpolationmode none
attr source packetSentToLower
attr title "packets transmitted, vector(packetBytes)"
vector 34 SolutionNetwork.rsu[4].eth.mac txPk:vector(packetBytes) ETV
attr interpolationmode none
attr source packetSentToLower
attr title "packets transmitted, vector(packetBytes)"
vector 35 SolutionNetwork.switch1.eth[0].mac rxPkOk:vector(packetBytes) ETV
attr interpolationmode none
attr source rxPkOk
attr title "packets received OK, vector(packetBytes)"
vector 36 SolutionNetwork.switch1.eth[0].mac passedUpPk:vector(packetBytes) ETV
attr interpolationmode none
attr source packetSentToUpper
attr title "packets passed to higher layer, vector(packetBytes)"
vector 37 SolutionNetwork.switch5.eth[0].mac rxPkOk:vector(packetBytes) ETV
attr interpolationmode none
attr source rxPkOk
attr title "packets received OK, vector(packetBytes)"
vector 38 SolutionNetwork.switch5.eth[0].mac passedUpPk:vector(packetBytes) ETV
attr interpolationmode none
attr source packetSentToUpper
attr title "packets passed to higher layer, vector(packetBytes)"
vector 39 SolutionNetwork.switch6.eth[0].mac rxPkOk:vector(packetBytes) ETV
attr interpolationmode none
attr source rxPkOk
attr title "packets received OK, vector(packetBytes)"
vector 40 SolutionNetwork.switch6.eth[0].mac passedUpPk:vector(packetBytes) ETV
attr interpolationmode none
attr source packetSentToUpper
attr title "packets passed to higher layer, vector(packetBytes)"
vector 41 SolutionNetwork.switch10.eth[0].mac rxPkOk:vector(packetBytes) ETV
attr interpolationmode none
attr source rxPkOk
attr title "packets received OK, vector(packetBytes)"
vector 42 SolutionNetwork.switch10.eth[0].mac passedUpPk:vector(packetBytes) ETV
attr interpolationmode none
attr source packetSentToUpper
attr title "packets passed to higher layer, vector(packetBytes)"
vector 43 SolutionNetwork.switch15.eth[3].mac rxPkOk:vector(packetBytes) ETV
attr interpolationmode none
attr source rxPkOk
attr title "packets received OK, vector(packetBytes)"
vector 44 SolutionNetwork.switch15.eth[3].mac passedUpPk:vector(packetBytes) ETV
attr interpolationmode none
attr source packetSentToUpper
attr title "packets passed to higher layer, vector(packetBytes)"
vector 45 SolutionNetwork.switch1.eth[1].mac packetReceivedFromUpper:vector(packetBytes) ETV
attr interpolationmode none
attr source packetReceivedFromUpper
attr title "packet bytes from higher layer, vector(packetBytes)"
vector 46 SolutionNetwork.switch1.eth[1].mac.queue packetPushed:vector(packetBytes) ETV
attr interpolationmode none
attr title "packet pushed, vector(packetBytes)"
vector 47 SolutionNetwork.switch1.eth[1].mac.queue queueLength:vector ETV
attr interpolationmode sample-hold
attr source "count(packetPushed) - count(packetPopped) - count(packetRemoved) - count(packetDropped)"
attr title "queue length, vector"
vector 48 SolutionNetwork.switch1.eth[1].mac.queue packetPopped:vector(packetBytes) ETV
attr interpolationmode none
attr title "packet popped, vector(packetBytes)"
vector 49 SolutionNetwork.switch1.eth[1].mac.queue queueingTime:vector ETV
attr interpolationmode none
attr source queueingTime(packetPopped)
attr title "queueing times, vector"
attr unit s
vector 50 SolutionNetwork.switch1.eth[2].mac packetReceivedFromUpper:vector(packetBytes) ETV
attr interpolationmode none
attr source packetReceivedFromUpper
attr title "packet bytes from higher layer, vector(packetBytes)"
vector 51 SolutionNetwork.switch1.eth[2].mac.queue packetPushed:vector(packetBytes) ETV
attr interpolationmode none
attr title "packet pushed, vector(packetBytes)"
vector 52 SolutionNetwork.switch1.eth[2].mac.queue queueLength:vector ETV
attr interpolationmode sample-hold
attr source "count(packetPushed) - count(packetPopped) - count(packetRemoved) - count(packetDropped)"
attr title "queue length, vector"
vector 53 SolutionNetwork.switch1.eth[2].mac.queue packetPopped:vector(packetBytes) ETV
attr interpolationmode none
attr title "packet popped, vector(packetBytes)"
vector 54 SolutionNetwork.switch1.eth[2].mac.queue queueingTime:vector ETV
attr interpolationmode none
attr source queueingTime(packetPopped)
attr title "queueing times, vector"
attr unit s
vector 55 SolutionNetwork.switch5.eth[1].mac packetReceivedFromUpper:vector(packetBytes) ETV
attr interpolationmode none
attr source packetReceivedFromUpper
attr title "packet bytes from higher layer, vector(packetBytes)"
vector 56 SolutionNetwork.switch5.eth[1].mac.queue packetPushed:vector(packetBytes) ETV
attr interpolationmode none
attr title "packet pushed, vector(packetBytes)"
vector 57 SolutionNetwork.switch5.eth[1].mac.queue queueLength:vector ETV
attr interpolationmode sample-hold
attr source "count(packetPushed) - count(packetPopped) - count(packetRemoved) - count(packetDropped)"
attr title "queue length, vector"
vector 58 SolutionNetwork.switch5.eth[1].mac.queue packetPopped:vector(packetBytes) ETV
attr interpolationmode none
attr title "packet popped, vector(packetBytes)"
vector 59 SolutionNetwork.switch5.eth[1].mac.queue queueingTime:vector ETV
attr interpolationmode none
attr source queueingTime(packetPopped)
attr title "queueing times, vector"
attr unit s
vector 60 SolutionNetwork.switch5.eth[2].mac packetReceivedFromUpper:vector(packetBytes) ETV
attr interpolationmode none
attr source packetReceivedFromUpper
attr title "packet bytes from higher layer, vector(packetBytes)"
vector 61 SolutionNetwork.switch5.eth[2].mac.queue packetPushed:vector(packetBytes) ETV
attr interpolationmode none
attr title "packet pushed, vector(packetBytes)"
vector 62 SolutionNetwork.switch5.eth[2].mac.queue queueLength:vector ETV
attr interpolationmode sample-hold
attr source "count(packetPushed) - count(packetPopped) - count(packetRemoved) - count(packetDropped)"
attr title "queue length, vector"
vector 63 SolutionNetwork.switch5.eth[2].mac.queue packetPopped:vector(packetBytes) ETV
attr interpolationmode none
attr title "packet popped, vector(packetBytes)"
vector 64 SolutionNetwork.switch5.eth[2].mac.queue queueingTime:vector ETV
attr interpolationmode none
attr source queueingTime(packetPopped)
attr title "queueing times, vector"
attr unit s
vector 65 SolutionNetwork.switch6.eth[1].mac packetReceivedFromUpper:vector(packetBytes) ETV
attr interpolationmode none
attr source packetReceivedFromUpper
attr title "packet bytes from higher layer, vector(packetBytes)"
vector 66 SolutionNetwork.switch6.eth[1].mac.queue packetPushed:vector(packetBytes) ETV
attr interpolationmode none
attr title "packet pushed, vector(packetBytes)"
vector 67 SolutionNetwork.switch6.eth[1].mac.queue queueLength:vector ETV
attr interpolationmode sample-hold
attr source "count(packetPushed) - count(packetPopped) - count(packetRemoved) - count(packetDropped)"
attr title "queue length, vector"
vector 68 SolutionNetwork.switch6.eth[1].mac.queue packetPopped:vector(packetBytes) ETV
attr interpolationmode none
attr title "packet popped, vector(packetBytes)"
vector 69 SolutionNetwork.switch6.eth[1].mac.queue queueingTime:vector ETV
attr interpolationmode none
attr source queueingTime(packetPopped)
attr title "queueing times, vector"
attr unit s
vector 70 SolutionNetwork.switch6.eth[2].mac packetReceivedFromUpper:vector(packetBytes) ETV
attr interpolationmode none
attr source packetReceivedFromUpper
attr title "packet bytes from higher layer, vector(packetBytes)"
vector 71 SolutionNetwork.switch6.eth[2].mac.queue packetPushed:vector(packetBytes) ETV
attr interpolationmode none
attr title "packet pushed, vector(packetBytes)"
vector 72 SolutionNetwork.switch6.eth[2].mac.queue queueLength:vector ETV
attr interpolationmode sample-hold
attr source "count(packetPushed) - count(packetPopped) - count(packetRemoved) - count(packetDropped)"
attr title "queue length, vector"
vector 73 SolutionNetwork.switch6.eth[2].mac.queue packetPopped:vector(packetBytes) ETV
attr interpolationmode none
attr title "packet popped, vector(packetBytes)"
vector 74 SolutionNetwork.switch6.eth[2].mac.queue queueingTime:vector ETV
attr interpolationmode none
attr source queueingTime(packetPopped)
attr title "queueing times, vector"
attr unit s
vector 75 SolutionNetwork.switch6.eth[3].mac packetReceivedFromUpper:vector(packetBytes) ETV
attr interpolationmode none
attr source packetReceivedFromUpper
attr title "packet bytes from higher layer, vector(packetBytes)"
vector 76 SolutionNetwork.switch6.eth[3].mac.queue packetPushed:vector(packetBytes) ETV
attr interpolationmode none
attr title "packet pushed, vector(packetBytes)"
vector 77 SolutionNetwork.switch6.eth[3].mac.queue queueLength:vector ETV
attr interpolationmode sample-hold
attr source "count(packetPushed) - count(packetPopped) - count(packetRemoved) - count(packetDropped)"
attr title "queue length, vector"
vector 78 SolutionNetwork.switch6.eth[3].mac.queue packetPopped:vector(packetBytes) ETV
attr interpolationmode none
attr title "packet popped, vector(packetBytes)"
vector 79 SolutionNetwork.switch6.eth[3].mac.queue queueingTime:vector ETV
attr interpolationmode none
attr source queueingTime(packetPopped)
attr title "queueing times, vector"
attr unit s
vector 80 SolutionNetwork.switch10.eth[1].mac packetReceivedFromUpper:vector(packetBytes) ETV
attr interpolationmode none
attr source packetReceivedFromUpper
attr title "packet bytes from higher layer, vector(packetBytes)"
vector 81 SolutionNetwork.switch10.eth[1].mac.queue packetPushed:vector(packetBytes) ETV
attr interpolationmode none
attr title "packet pushed, vector(packetBytes)"
vector 82 SolutionNetwork.switch10.eth[1].mac.queue queueLength:vector ETV
attr interpolationmode sample-hold
attr source "count(packetPushed) - count(packetPopped) - count(packetRemoved) - count(packetDropped)"
attr title "queue length, vector"
vector 83 SolutionNetwork.switch10.eth[1].mac.queue packetPopped:vector(packetBytes) ETV
attr interpolationmode none
attr title "packet popped, vector(packetBytes)"
vector 84 SolutionNetwork.switch10.eth[1].mac.queue queueingTime:vector ETV
attr interpolationmode none
attr source queueingTime(packetPopped)
attr title "queueing times, vector"
attr unit s
vector 85 SolutionNetwork.switch10.eth[2].mac packetReceivedFromUpper:vector(packetBytes) ETV
attr interpolationmode none
attr source packetReceivedFromUpper
attr title "packet bytes from higher layer, vector(packetBytes)"
vector 86 SolutionNetwork.switch10.eth[2].mac.queue packetPushed:vector(packetBytes) ETV
attr interpolationmode none
attr title "packet pushed, vector(packetBytes)"
vector 87 SolutionNetwork.switch10.eth[2].mac.queue queueLength:vector ETV
attr interpolationmode sample-hold
attr source "count(packetPushed) - count(packetPopped) - count(packetRemoved) - count(packetDropped)"
attr title "queue length, vector"
vector 88 SolutionNetwork.switch10.eth[2].mac.queue packetPopped:vector(packetBytes) ETV
attr interpolationmode none
attr title "packet popped, vector(packetBytes)"
vector 89 SolutionNetwork.switch10.eth[2].mac.queue queueingTime:vector ETV
attr interpolationmode none
attr source queueingTime(packetPopped)
attr title "queueing times, vector"
attr unit s
vector 90 SolutionNetwork.switch10.eth[3].mac packetReceivedFromUpper:vector(packetBytes) ETV
attr interpolationmode none
attr source packetReceivedFromUpper
attr title "packet bytes from higher layer, vector(packetBytes)"
vector 91 SolutionNetwork.switch10.eth[3].mac.queue packetPushed:vector(packetBytes) ETV
attr interpolationmode none
attr title "packet pushed, vector(packetBytes)"
vector 92 SolutionNetwork.switch10.eth[3].mac.queue queueLength:vector ETV
attr interpolationmode sample-hold
attr source "count(packetPushed) - count(packetPopped) - count(packetRemoved) - count(packetDropped)"
attr title "queue length, vector"
vector 93 SolutionNetwork.switch10.eth[3].mac.queue packetPopped:vector(packetBytes) ETV
attr interpolationmode none
attr title "packet popped, vector(packetBytes)"
vector 94 SolutionNetwork.switch10.eth[3].mac.queue queueingTime:vector ETV
attr interpolationmode none
attr source queueingTime(packetPopped)
attr title "queueing times, vector"
attr unit s
vector 95 SolutionNetwork.switch10.eth[4].mac packetReceivedFromUpper:vector(packetBytes) ETV
attr interpolationmode none
attr source packetReceivedFromUpper
attr title "packet bytes from higher layer, vector(packetBytes)"
vector 96 SolutionNetwork.switch10.eth[4].mac.queue packetPushed:vector(packetBytes) ETV
attr interpolationmode none
attr title "packet pushed, vector(packetBytes)"
vector 97 SolutionNetwork.switch10.eth[4].mac.queue queueLength:vector ETV
attr interpolationmode sample-hold
attr source "count(packetPushed) - count(packetPopped) - count(packetRemoved) - count(packetDropped)"
attr title "queue length, vector"
vector 98 SolutionNetwork.switch10.eth[4].mac.queue packetPopped:vector(packetBytes) ETV
attr interpolationmode none
attr title "packet popped, vector(packetBytes)"
vector 99 SolutionNetwork.switch10.eth[4].mac.queue queueingTime:vector ETV
attr interpolationmode none
attr source queueingTime(packetPopped)
attr title "queueing times, vector"
attr unit s
vector 100 SolutionNetwork.switch15.eth[0].mac packetReceivedFromUpper:vector(packetBytes) ETV
attr interpolationmode none
attr source packetReceivedFromUpper
attr title "packet bytes from higher layer, vector(packetBytes)"
vector 101 SolutionNetwork.switch15.eth[0].mac.queue packetPushed:vector(packetBytes) ETV
attr interpolationmode none
attr title "packet pushed, vector(packetBytes)"
vector 102 SolutionNetwork.switch15.eth[0].mac.queue queueLength:vector ETV
attr interpolationmode sample-hold
attr source "count(packetPushed) - count(packetPopped) - count(packetRemoved) - count(packetDropped)"
attr title "queue length, vector"
vector 103 SolutionNetwork.switch15.eth[0].mac.queue packetPopped:vector(packetBytes) ETV
attr interpolationmode none
attr title "packet popped, vector(packetBytes)"
vector 104 SolutionNetwork.switch15.eth[0].mac.queue queueingTime:vector ETV
attr interpolationmode none
attr source queueingTime(packetPopped)
attr title "queueing times, vector"
attr unit s
vector 105 SolutionNetwork.switch15.eth[1].mac packetReceivedFromUpper:vector(packetBytes) ETV
attr interpolationmode none
attr source packetReceivedFromUpper
attr title "packet bytes from higher layer, vector(packetBytes)"
vector 106 SolutionNetwork.switch15.eth[1].mac.queue packetPushed:vector(packetBytes) ETV
attr interpolationmode none
attr title "packet pushed, vector(packetBytes)"
vector 107 SolutionNetwork.switch15.eth[1].mac.queue queueLength:vector ETV
attr interpolationmode sample-hold
attr source "count(packetPushed) - count(packetPopped) - count(packetRemoved) - count(packetDropped)"
attr title "queue length, vector"
vector 108 SolutionNetwork.switch15.eth[1].mac.queue packetPopped:vector(packetBytes) ETV
attr interpolationmode none
attr title "packet popped, vector(packetBytes)"
vector 109 SolutionNetwork.switch15.eth[1].mac.queue queueingTime:vector ETV
attr interpolationmode none
attr source queueingTime(packetPopped)
attr title "queueing times, vector"
attr unit s
vector 110 SolutionNetwork.switch15.eth[2].mac packetReceivedFromUpper:vector(packetBytes) ETV
attr interpolationmode none
attr source packetReceivedFromUpper
attr title "packet bytes from higher layer, vector(packetBytes)"
vector 111 SolutionNetwork.switch15.eth[2].mac.queue packetPushed:vector(packetBytes) ETV
attr interpolationmode none
attr title "packet pushed, vector(packetBytes)"
vector 112 SolutionNetwork.switch15.eth[2].mac.queue queueLength:vector ETV
attr interpolationmode sample-hold
attr source "count(packetPushed) - count(packetPopped) - count(packetRemoved) - count(packetDropped)"
attr title "queue length, vector"
vector 113 SolutionNetwork.switch15.eth[2].mac.queue packetPopped:vector(packetBytes) ETV
attr interpolationmode none
attr title "packet popped, vector(packetBytes)"
vector 114 SolutionNetwork.switch15.eth[2].mac.queue queueingTime:vector ETV
attr interpolationmode none
attr source queueingTime(packetPopped)
attr title "queueing times, vector"
attr unit s
vector 115 SolutionNetwork.switch1.eth[1].mac txPk:vector(packetBytes) ETV
attr interpolationmode none
attr source packetSentToLower
attr title "packets transmitted, vector(packetBytes)"
vector 116 SolutionNetwork.switch1.eth[2].mac txPk:vector(packetBytes) ETV
attr interpolationmode none
attr source packetSentToLower
attr title "packets transmitted, vector(packetBytes)"
vector 117 SolutionNetwork.switch5.eth[1].mac txPk:vector(packetBytes) ETV
attr interpolationmode none
attr source packetSentToLower
attr title "packets transmitted, vector(packetBytes)"
vector 118 SolutionNetwork.switch5.eth[2].mac txPk:vector(packetBytes) ETV
attr interpolationmode none
attr source packetSentToLower
attr title "packets transmitted, vector(packetBytes)"
vector 119 SolutionNetwork.switch6.eth[1].mac txPk:vector(packetBytes) ETV
attr interpolationmode none
attr source packetSentToLower
attr title "packets transmitted, vector(packetBytes)"
vector 120 SolutionNetwork.switch6.eth[2].mac txPk:vector(packetBytes) ETV
attr interpolationmode none
attr source packetSentToLower
attr title "packets transmitted, vector(packetBytes)"
vector 121 SolutionNetwork.switch6.eth[3].mac txPk:vector(packetBytes) ETV
attr interpolationmode none
attr source packetSentToLower
attr title "packets transmitted, vector(packetBytes)"
vector 122 SolutionNetwork.switch10.eth[1].mac txPk:vector(packetBytes) ETV
attr interpolationmode none
attr source packetSentToLower
attr title "packets transmitted, vector(packetBytes)"
vector 123 SolutionNetwork.switch10.eth[2].mac txPk:vector(packetBytes) ETV
attr interpolationmode none
attr source packetSentToLower
attr title "packets transmitted, vector(packetBytes)"
vector 124 SolutionNetwork.switch10.eth[3].mac txPk:vector(packetBytes) ETV
attr interpolationmode none
attr source packetSentToLower
attr title "packets transmitted, vector(packetBytes)"
vector 125 SolutionNetwork.switch10.eth[4].mac txPk:vector(packetBytes) ETV
attr interpolationmode none
attr source packetSentToLower
attr title "packets transmitted, vector(packetBytes)"
vector 126 SolutionNetwork.switch15.eth[0].mac txPk:vector(packetBytes) ETV
attr interpolationmode none
attr source packetSentToLower
attr title "packets transmitted, vector(packetBytes)"
vector 127 SolutionNetwork.switch15.eth[1].mac txPk:vector(packetBytes) ETV
attr interpolationmode none
attr source packetSentToLower
attr title "packets transmitted, vector(packetBytes)"
vector 128 SolutionNetwork.switch15.eth[2].mac txPk:vector(packetBytes) ETV
attr interpolationmode none
attr source packetSentToLower
attr title "packets transmitted, vector(packetBytes)"
vector 129 SolutionNetwork.switch2.eth[0].mac rxPkOk:vector(packetBytes) ETV
attr interpolationmode none
attr source rxPkOk
attr title "packets received OK, vector(packetBytes)"
vector 130 SolutionNetwork.switch2.eth[0].mac passedUpPk:vector(packetBytes) ETV
attr interpolationmode none
attr source packetSentToUpper
attr title "packets passed to higher layer, vector(packetBytes)"
vector 131 SolutionNetwork.switch3.eth[0].mac rxPkOk:vector(packetBytes) ETV
attr interpolationmode none
attr source rxPkOk
attr title "packets received OK, vector(packetBytes)"
vector 132 SolutionNetwork.switch3.eth[0].mac passedUpPk:vector(packetBytes) ETV
attr interpolationmode none
attr source packetSentToUpper
attr title "packets passed to higher layer, vector(packetBytes)"
vector 133 SolutionNetwork.switch3.eth[2].mac rxPkOk:vector(packetBytes) ETV
attr interpolationmode none
attr source rxPkOk
attr title "packets received OK, vector(packetBytes)"
vector 134 SolutionNetwork.switch3.eth[2].mac passedUpPk:vector(packetBytes) ETV
attr interpolationmode none
attr source packetSentToUpper
attr title "packets passed to higher layer, vector(packetBytes)"
vector 135 SolutionNetwork.switch6.eth[1].mac rxPkOk:vector(packetBytes) ETV
attr interpolationmode none
attr source rxPkOk
attr title "packets received OK, vector(packetBytes)"
vector 136 SolutionNetwork.switch6.eth[1].mac passedUpPk:vector(packetBytes) ETV
attr interpolationmode none
attr source packetSentToUpper
attr title "packets passed to higher layer, vector(packetBytes)"
vector 137 SolutionNetwork.switch5.eth[2].mac rxPkOk:vector(packetBytes) ETV
attr interpolationmode none
attr source rxPkOk
attr title "packets received OK, vector(packetBytes)"
vector 138 SolutionNetwork.switch5.eth[2].mac passedUpPk:vector(packetBytes) ETV
attr interpolationmode none
attr source packetSentToUpper
attr title "packets passed to higher layer, vector(packetBytes)"
vector 139 SolutionNetwork.switch7.eth[0].mac rxPkOk:vector(packetBytes) ETV
attr interpolationmode none
attr source rxPkOk
attr title "packets received OK, vector(packetBytes)"
vector 140 SolutionNetwork.switch7.eth[0].mac passedUpPk:vector(packetBytes) ETV
attr interpolationmode none
attr source packetSentToUpper
attr title "packets passed to higher layer, vector(packetBytes)"
vector 141 SolutionNetwork.switch8.eth[0].mac rxPkOk:vector(packetBytes) ETV
attr interpolationmode none
attr source rxPkOk
attr title "packets received OK, vector(packetBytes)"
vector 142 SolutionNetwork.switch8.eth[0].mac passedUpPk:vector(packetBytes) ETV
attr interpolationmode none
attr source packetSentToUpper
attr title "packets passed to higher layer, vector(packetBytes)"
vector 143 SolutionNetwork.switch9.eth[1].mac rxPkOk:vector(packetBytes) ETV
attr interpolationmode none
attr source rxPkOk
attr title "packets received OK, vector(packetBytes)"
vector 144 SolutionNetwork.switch9.eth[1].mac passedUpPk:vector(packetBytes) ETV
attr interpolationmode none
attr source packetSentToUpper
attr title "packets passed to higher layer, vector(packetBytes)"
vector 145 SolutionNetwork.switch11.eth[0].mac rxPkOk:vector(packetBytes) ETV
attr interpolationmode none
attr source rxPkOk
attr title "packets received OK, vector(packetBytes)"
vector 146 SolutionNetwork.switch11.eth[0].mac passedUpPk:vector(packetBytes) ETV
attr interpolationmode none
attr source packetSentToUpper
attr title "packets passed to higher layer, vector(packetBytes)"
vector 147 SolutionNetwork.switch12.eth[0].mac rxPkOk:vector(packetBytes) ETV
attr interpolationmode none
attr source rxPkOk
attr title "packets received OK, vector(packetBytes)"
vector 148 SolutionNetwork.switch12.eth[0].mac passedUpPk:vector(packetBytes) ETV
attr interpolationmode none
attr source packetSentToUpper
attr title "packets passed to higher layer, vector(packetBytes)"
vector 149 SolutionNetwork.switch17.eth[0].mac rxPkOk:vector(packetBytes) ETV
attr interpolationmode none
attr source rxPkOk
attr title "packets received OK, vector(packetBytes)"
vector 150 SolutionNetwork.switch17.eth[0].mac passedUpPk:vector(packetBytes) ETV
attr interpolationmode none
attr source packetSentToUpper
attr title "packets passed to higher layer, vector(packetBytes)"
vector 151 SolutionNetwork.switch18.eth[1].mac rxPkOk:vector(packetBytes) ETV
attr interpolationmode none
attr source rxPkOk
attr title "packets received OK, vector(packetBytes)"
vector 152 SolutionNetwork.switch18.eth[1].mac passedUpPk:vector(packetBytes) ETV
attr interpolationmode none
attr source packetSentToUpper
attr title "packets passed to higher layer, vector(packetBytes)"
vector 153 SolutionNetwork.switch16.eth[0].mac rxPkOk:vector(packetBytes) ETV
attr interpolationmode none
attr source rxPkOk
attr title "packets received OK, vector(packetBytes)"
vector 154 SolutionNetwork.switch16.eth[0].mac passedUpPk:vector(packetBytes) ETV
attr interpolationmode none
attr source packetSentToUpper
attr title "packets passed to higher layer, vector(packetBytes)"
vector 155 SolutionNetwork.ES7.eth.mac rxPkOk:vector(packetBytes) ETV
attr interpolationmode none
attr source rxPkOk
attr title "packets received OK, vector(packetBytes)"
vector 156 SolutionNetwork.ES7.eth.mac passedUpPk:vector(packetBytes) ETV
attr interpolationmode none
attr source packetSentToUpper
attr title "packets passed to higher layer, vector(packetBytes)"
vector 157 SolutionNetwork.switch2.eth[1].mac packetReceivedFromUpper:vector(packetBytes) ETV
attr interpolationmode none
attr source packetReceivedFromUpper
attr title "packet bytes from higher layer, vector(packetBytes)"
vector 158 SolutionNetwork.switch2.eth[1].mac.queue packetPushed:vector(packetBytes) ETV
attr interpolationmode none
attr title "packet pushed, vector(packetBytes)"
vector 159 SolutionNetwork.switch2.eth[1].mac.queue queueLength:vector ETV
attr interpolationmode sample-hold
attr source "count(packetPushed) - count(packetPopped) - count(packetRemoved) - count(packetDropped)"
attr title "queue length, vector"
vector 160 SolutionNetwork.switch2.eth[1].mac.queue packetPopped:vector(packetBytes) ETV
attr interpolationmode none
attr title "packet popped, vector(packetBytes)"
vector 161 SolutionNetwork.switch2.eth[1].mac.queue queueingTime:vector ETV
attr interpolationmode none
attr source queueingTime(packetPopped)
attr title "queueing times, vector"
attr unit s
vector 162 SolutionNetwork.switch3.eth[1].mac packetReceivedFromUpper:vector(packetBytes) ETV
attr interpolationmode none
attr source packetReceivedFromUpper
attr title "packet bytes from higher layer, vector(packetBytes)"
vector 163 SolutionNetwork.switch3.eth[1].mac.queue packetPushed:vector(packetBytes) ETV
attr interpolationmode none
attr title "packet pushed, vector(packetBytes)"
vector 164 SolutionNetwork.switch3.eth[1].mac.queue queueLength:vector ETV
attr interpolationmode sample-hold
attr source "count(packetPushed) - count(packetPopped) - count(packetRemoved) - count(packetDropped)"
attr title "queue length, vector"
vector 165 SolutionNetwork.switch3.eth[1].mac.queue packetPopped:vector(packetBytes) ETV
attr interpolationmode none
attr title "packet popped, vector(packetBytes)"
vector 166 SolutionNetwork.switch3.eth[1].mac.queue queueingTime:vector ETV
attr interpolationmode none
attr source queueingTime(packetPopped)
attr title "queueing times, vector"
attr unit s
vector 167 SolutionNetwork.switch3.eth[2].mac packetReceivedFromUpper:vector(packetBytes) ETV
attr interpolationmode none
attr source packetReceivedFromUpper
attr title "packet bytes from higher layer, vector(packetBytes)"
vector 168 SolutionNetwork.switch3.eth[2].mac.queue packetPushed:vector(packetBytes) ETV
attr interpolationmode none
attr title "packet pushed, vector(packetBytes)"
vector 169 SolutionNetwork.switch3.eth[2].mac.queue queueLength:vector ETV
attr interpolationmode sample-hold
attr source "count(packetPushed) - count(packetPopped) - count(packetRemoved) - count(packetDropped)"
attr title "queue length, vector"
vector 170 SolutionNetwork.switch3.eth[2].mac.queue packetPopped:vector(packetBytes) ETV
attr interpolationmode none
attr title "packet popped, vector(packetBytes)"
vector 171 SolutionNetwork.switch3.eth[2].mac.queue queueingTime:vector ETV
attr interpolationmode none
attr source queueingTime(packetPopped)
attr title "queueing times, vector"
attr unit s
vector 172 SolutionNetwork.switch3.eth[0].mac packetReceivedFromUpper:vector(packetBytes) ETV
attr interpolationmode none
attr source packetReceivedFromUpper
attr title "packet bytes from higher layer, vector(packetBytes)"
vector 173 SolutionNetwork.switch3.eth[0].mac.queue packetPushed:vector(packetBytes) ETV
attr interpolationmode none
attr title "packet pushed, vector(packetBytes)"
vector 174 SolutionNetwork.switch3.eth[0].mac.queue queueLength:vector ETV
attr interpolationmode sample-hold
attr source "count(packetPushed) - count(packetPopped) - count(packetRemoved) - count(packetDropped)"
attr title "queue length, vector"
vector 175 SolutionNetwork.switch3.eth[0].mac.queue packetPopped:vector(packetBytes) ETV
attr interpolationmode none
attr title "packet popped, vector(packetBytes)"
vector 176 SolutionNetwork.switch3.eth[0].mac.queue queueingTime:vector ETV
attr interpolationmode none
attr source queueingTime(packetPopped)
attr title "queueing times, vector"
attr unit s
vector 177 SolutionNetwork.switch6.eth[0].mac packetReceivedFromUpper:vector(packetBytes) ETV
attr interpolationmode none
attr source packetReceivedFromUpper
attr title "packet bytes from higher layer, vector(packetBytes)"
vector 178 SolutionNetwork.switch6.eth[0].mac.queue packetPushed:vector(packetBytes) ETV
attr interpolationmode none
attr title "packet pushed, vector(packetBytes)"
vector 179 SolutionNetwork.switch6.eth[0].mac.queue queueLength:vector ETV
attr interpolationmode sample-hold
attr source "count(packetPushed) - count(packetPopped) - count(packetRemoved) - count(packetDropped)"
attr title "queue length, vector"
vector 180 SolutionNetwork.switch6.eth[0].mac.queue packetPopped:vector(packetBytes) ETV
attr interpolationmode none
attr title "packet popped, vector(packetBytes)"
vector 181 SolutionNetwork.switch6.eth[0].mac.queue queueingTime:vector ETV
attr interpolationmode none
attr source queueingTime(packetPopped)
attr title "queueing times, vector"
attr unit s
vector 182 SolutionNetwork.switch5.eth[0].mac packetReceivedFromUpper:vector(packetBytes) ETV
attr interpolationmode none
attr source packetReceivedFromUpper
attr title "packet bytes from higher layer, vector(packetBytes)"
vector 183 SolutionNetwork.switch5.eth[0].mac.queue packetPushed:vector(packetBytes) ETV
attr interpolationmode none
attr title "packet pushed, vector(packetBytes)"
vector 184 SolutionNetwork.switch5.eth[0].mac.queue queueLength:vector ETV
attr interpolationmode sample-hold
attr source "count(packetPushed) - count(packetPopped) - count(packetRemoved) - count(packetDropped)"
attr title "queue length, vector"
vector 185 SolutionNetwork.switch5.eth[0].mac.queue packetPopped:vector(packetBytes) ETV
attr interpolationmode none
attr title "packet popped, vector(packetBytes)"
vector 186 SolutionNetwork.switch5.eth[0].mac.queue queueingTime:vector ETV
attr interpolationmode none
attr source queueingTime(packetPopped)
attr title "queueing times, vector"
attr unit s
vector 187 SolutionNetwork.switch7.eth[1].mac packetReceivedFromUpper:vector(packetBytes) ETV
attr interpolationmode none
attr source packetReceivedFromUpper
attr title "packet bytes from higher layer, vector(packetBytes)"
vector 188 SolutionNetwork.switch7.eth[1].mac.queue packetPushed:vector(packetBytes) ETV
attr interpolationmode none
attr title "packet pushed, vector(packetBytes)"
vector 189 SolutionNetwork.switch7.eth[1].mac.queue queueLength:vector ETV
attr interpolationmode sample-hold
attr source "count(packetPushed) - count(packetPopped) - count(packetRemoved) - count(packetDropped)"
attr title "queue length, vector"
vector 190 SolutionNetwork.switch7.eth[1].mac.queue packetPopped:vector(packetBytes) ETV
attr interpolationmode none
attr title "packet popped, vector(packetBytes)"
vector 191 SolutionNetwork.switch7.eth[1].mac.queue queueingTime:vector ETV
attr interpolationmode none
attr source queueingTime(packetPopped)
attr title "queueing times, vector"
attr unit s
vector 192 SolutionNetwork.switch8.eth[1].mac packetReceivedFromUpper:vector(packetBytes) ETV
attr interpolationmode none
attr source packetReceivedFromUpper
attr title "packet bytes from higher layer, vector(packetBytes)"
vector 193 SolutionNetwork.switch8.eth[1].mac.queue packetPushed:vector(packetBytes) ETV
attr interpolationmode none
attr title "packet pushed, vector(packetBytes)"
vector 194 SolutionNetwork.switch8.eth[1].mac.queue queueLength:vector ETV
attr interpolationmode sample-hold
attr source "count(packetPushed) - count(packetPopped) - count(packetRemoved) - count(packetDropped)"
attr title "queue length, vector"
vector 195 SolutionNetwork.switch8.eth[1].mac.queue packetPopped:vector(packetBytes) ETV
attr interpolationmode none
attr title "packet popped, vector(packetBytes)"
vector 196 SolutionNetwork.switch8.eth[1].mac.queue queueingTime:vector ETV
attr interpolationmode none
attr source queueingTime(packetPopped)
attr title "queueing times, vector"
attr unit s
vector 197 SolutionNetwork.switch9.eth[0].mac packetReceivedFromUpper:vector(packetBytes) ETV
attr interpolationmode none
attr source packetReceivedFromUpper
attr title "packet bytes from higher layer, vector(packetBytes)"
vector 198 SolutionNetwork.switch9.eth[0].mac.queue packetPushed:vector(packetBytes) ETV
attr interpolationmode none
attr title "packet pushed, vector(packetBytes)"
vector 199 SolutionNetwork.switch9.eth[0].mac.queue queueLength:vector ETV
attr interpolationmode sample-hold
attr source "count(packetPushed) - count(packetPopped) - count(packetRemoved) - count(packetDropped)"
attr title "queue length, vector"
vector 200 SolutionNetwork.switch9.eth[0].mac.queue packetPopped:vector(packetBytes) ETV
attr interpolationmode none
attr title "packet popped, vector(packetBytes)"
vector 201 SolutionNetwork.switch9.eth[0].mac.queue queueingTime:vector ETV
attr interpolationmode none
attr source queueingTime(packetPopped)
attr title "queueing times, vector"
attr unit s
vector 202 SolutionNetwork.switch11.eth[1].mac packetReceivedFromUpper:vector(packetBytes) ETV
attr interpolationmode none
attr source packetReceivedFromUpper
attr title "packet bytes from higher layer, vector(packetBytes)"
vector 203 SolutionNetwork.switch11.eth[1].mac.queue packetPushed:vector(packetBytes) ETV
attr interpolationmode none
attr title "packet pushed, vector(packetBytes)"
vector 204 SolutionNetwork.switch11.eth[1].mac.queue queueLength:vector ETV
attr interpolationmode sample-hold
attr source "count(packetPushed) - count(packetPopped) - count(packetRemoved) - count(packetDropped)"
attr title "queue length, vector"
vector 205 SolutionNetwork.switch11.eth[1].mac.queue packetPopped:vector(packetBytes) ETV
attr interpolationmode none
attr title "packet popped, vector(packetBytes)"
vector 206 SolutionNetwork.switch11.eth[1].mac.queue queueingTime:vector ETV
attr interpolationmode none
attr source queueingTime(packetPopped)
attr title "queueing times, vector"
attr unit s
vector 207 SolutionNetwork.switch12.eth[1].mac packetReceivedFromUpper:vector(packetBytes) ETV
attr interpolationmode none
attr source packetReceivedFromUpper
attr title "packet bytes from higher layer, vector(packetBytes)"
vector 208 SolutionNetwork.switch12.eth[1].mac.queue packetPushed:vector(packetBytes) ETV
attr interpolationmode none
attr title "packet pushed, vector(packetBytes)"
vector 209 SolutionNetwork.switch12.eth[1].mac.queue queueLength:vector ETV
attr interpolationmode sample-hold
attr source "count(packetPushed) - count(packetPopped) - count(packetRemoved) - count(packetDropped)"
attr title "queue length, vector"
vector 210 SolutionNetwork.switch12.eth[1].mac.queue packetPopped:vector(packetBytes) ETV
attr interpolationmode none
attr title "packet popped, vector(packetBytes)"
vector 211 SolutionNetwork.switch12.eth[1].mac.queue queueingTime:vector ETV
attr interpolationmode none
attr source queueingTime(packetPopped)
attr title "queueing times, vector"
attr unit s
vector 212 SolutionNetwork.switch17.eth[1].mac packetReceivedFromUpper:vector(packetBytes) ETV
attr interpolationmode none
attr source packetReceivedFromUpper
attr title "packet bytes from higher layer, vector(packetBytes)"
vector 213 SolutionNetwork.switch17.eth[1].mac.queue packetPushed:vector(packetBytes) ETV
attr interpolationmode none
attr title "packet pushed, vector(packetBytes)"
vector 214 SolutionNetwork.switch17.eth[1].mac.queue queueLength:vector ETV
attr interpolationmode sample-hold
attr source "count(packetPushed) - count(packetPopped) - count(packetRemoved) - count(packetDropped)"
attr title "queue length, vector"
vector 215 SolutionNetwork.switch17.eth[1].mac.queue packetPopped:vector(packetBytes) ETV
attr interpolationmode none
attr title "packet popped, vector(packetBytes)"
vector 216 SolutionNetwork.switch17.eth[1].mac.queue queueingTime:vector ETV
attr interpolationmode none
attr source queueingTime(packetPopped)
attr title "queueing times, vector"
attr unit s
vector 217 SolutionNetwork.switch18.eth[0].mac packetReceivedFromUpper:vector(packetBytes) ETV
attr interpolationmode none
attr source packetReceivedFromUpper
attr title "packet bytes from higher layer, vector(packetBytes)"
vector 218 SolutionNetwork.switch18.eth[0].mac.queue packetPushed:vector(packetBytes) ETV
attr interpolationmode none
attr title "packet pushed, vector(packetBytes)"
vector 219 SolutionNetwork.switch18.eth[0].mac.queue queueLength:vector ETV
attr interpolationmode sample-hold
attr source "count(packetPushed) - count(packetPopped) - count(packetRemoved) - count(packetDropped)"
attr title "queue length, vector"
vector 220 SolutionNetwork.switch18.eth[0].mac.queue packetPopped:vector(packetBytes) ETV
attr interpolationmode none
attr title "packet popped, vector(packetBytes)"
vector 221 SolutionNetwork.switch18.eth[0].mac.queue queueingTime:vector ETV
attr interpolationmode none
attr source queueingTime(packetPopped)
attr title "queueing times, vector"
attr unit s
vector 222 SolutionNetwork.switch16.eth[1].mac packetReceivedFromUpper:vector(packetBytes) ETV
attr interpolationmode none
attr source packetReceivedFromUpper
attr title "packet bytes from higher layer, vector(packetBytes)"
vector 223 SolutionNetwork.switch16.eth[1].mac.queue packetPushed:vector(packetBytes) ETV
attr interpolationmode none
attr title "packet pushed, vector(packetBytes)"
vector 224 SolutionNetwork.switch16.eth[1].mac.queue queueLength:vector ETV
attr interpolationmode sample-hold
attr source "count(packetPushed) - count(packetPopped) - count(packetRemoved) - count(packetDropped)"
attr title "queue length, vector"
vector 225 SolutionNetwork.switch16.eth[1].mac.queue packetPopped:vector(packetBytes) ETV
attr interpolationmode none
attr title "packet popped, vector(packetBytes)"
vector 226 SolutionNetwork.switch16.eth[1].mac.queue queueingTime:vector ETV
attr interpolationmode none
attr source queueingTime(packetPopped)
attr title "queueing times, vector"
attr unit s
vector 227 SolutionNetwork.ES7.srv packetReceived:vector(packetBytes) ETV
attr interpolationmode none
attr source packetReceived
attr title "packets received, vector(packetBytes)"
vector 228 SolutionNetwork.ES7.srv packetSent:vector(packetBytes) ETV
attr interpolationmode none
attr source packetSent
attr title "packets sent, vector(packetBytes)"
vector 229 SolutionNetwork.ES7.llc encapPk:vector(packetBytes) ETV
attr interpolationmode none
attr source encapPk
attr title "packets encapsulated, vector(packetBytes)"
vector 230 SolutionNetwork.ES7.eth.mac packetReceivedFromUpper:vector(packetBytes) ETV
attr interpolationmode none
attr source packetReceivedFromUpper
attr title "packet bytes from higher layer, vector(packetBytes)"
vector 231 SolutionNetwork.ES7.eth.mac.queue packetPushed:vector(packetBytes) ETV
attr interpolationmode none
attr title "packet pushed, vector(packetBytes)"
vector 232 SolutionNetwork.ES7.eth.mac.queue queueLength:vector ETV
attr interpolationmode sample-hold
attr source "count(packetPushed) - count(packetPopped) - count(packetRemoved) - count(packetDropped)"
attr title "queue length, vector"
vector 233 SolutionNetwork.ES7.eth.mac.queue packetPopped:vector(packetBytes) ETV
attr interpolationmode none
attr title "packet popped, vector(packetBytes)"
vector 234 SolutionNetwork.ES7.eth.mac.queue queueingTime:vector ETV
attr interpolationmode none
attr source queueingTime(packetPopped)
attr title "queueing times, vector"
attr unit s
vector 235 SolutionNetwork.switch2.eth[1].mac txPk:vector(packetBytes) ETV
attr interpolationmode none
attr source packetSentToLower
attr title "packets transmitted, vector(packetBytes)"
vector 236 SolutionNetwork.switch3.eth[1].mac txPk:vector(packetBytes) ETV
attr interpolationmode none
attr source packetSentToLower
attr title "packets transmitted, vector(packetBytes)"
vector 237 SolutionNetwork.switch6.eth[0].mac txPk:vector(packetBytes) ETV
attr interpolationmode none
attr source packetSentToLower
attr title "packets transmitted, vector(packetBytes)"
vector 238 SolutionNetwork.switch5.eth[0].mac txPk:vector(packetBytes) ETV
attr interpolationmode none
attr source packetSentToLower
attr title "packets transmitted, vector(packetBytes)"
vector 239 SolutionNetwork.switch7.eth[1].mac txPk:vector(packetBytes) ETV
attr interpolationmode none
attr source packetSentToLower
attr title "packets transmitted, vector(packetBytes)"
vector 240 SolutionNetwork.switch8.eth[1].mac txPk:vector(packetBytes) ETV
attr interpolationmode none
attr source packetSentToLower
attr title "packets transmitted, vector(packetBytes)"
vector 241 SolutionNetwork.switch9.eth[0].mac txPk:vector(packetBytes) ETV
attr interpolationmode none
attr source packetSentToLower
attr title "packets transmitted, vector(packetBytes)"
vector 242 SolutionNetwork.switch11.eth[1].mac txPk:vector(packetBytes) ETV
attr interpolationmode none
attr source packetSentToLower
attr title "packets transmitted, vector(packetBytes)"
vector 243 SolutionNetwork.switch12.eth[1].mac txPk:vector(packetBytes) ETV
attr interpolationmode none
attr source packetSentToLower
attr title "packets transmitted, vector(packetBytes)"
vector 244 SolutionNetwork.switch17.eth[1].mac txPk:vector(packetBytes) ETV
attr interpolationmode none
attr source packetSentToLower
attr title "packets transmitted, vector(packetBytes)"
vector 245 SolutionNetwork.switch18.eth[0].mac txPk:vector(packetBytes) ETV
attr interpolationmode none
attr source packetSentToLower
attr title "packets transmitted, vector(packetBytes)"
vector 246 SolutionNetwork.switch16.eth[1].mac txPk:vector(packetBytes) ETV
attr interpolationmode none
attr source packetSentToLower
attr title "packets transmitted, vector(packetBytes)"
vector 247 SolutionNetwork.switch3.eth[0].mac txPk:vector(packetBytes) ETV
attr interpolationmode none
attr source packetSentToLower
attr title "packets transmitted, vector(packetBytes)"
vector 248 SolutionNetwork.switch3.eth[2].mac txPk:vector(packetBytes) ETV
attr interpolationmode none
attr source packetSentToLower
attr title "packets transmitted, vector(packetBytes)"
vector 249 SolutionNetwork.ES7.eth.mac txPk:vector(packetBytes) ETV
attr interpolationmode none
attr source packetSentToLower
attr title "packets transmitted, vector(packetBytes)"
vector 250 SolutionNetwork.ES0.eth.mac rxPkOk:vector(packetBytes) ETV
attr interpolationmode none
attr source rxPkOk
attr title "packets received OK, vector(packetBytes)"
vector 251 SolutionNetwork.ES0.eth.mac passedUpPk:vector(packetBytes) ETV
attr interpolationmode none
attr source packetSentToUpper
attr title "packets passed to higher layer, vector(packetBytes)"
vector 252 SolutionNetwork.switch4.eth[0].mac rxPkOk:vector(packetBytes) ETV
attr interpolationmode none
attr source rxPkOk
attr title "packets received OK, vector(packetBytes)"
vector 253 SolutionNetwork.switch4.eth[0].mac passedUpPk:vector(packetBytes) ETV
attr interpolationmode none
attr source packetSentToUpper
attr title "packets passed to higher layer, vector(packetBytes)"
vector 254 SolutionNetwork.rsu[2].eth.mac rxPkOk:vector(packetBytes) ETV
attr interpolationmode none
attr source rxPkOk
attr title "packets received OK, vector(packetBytes)"
vector 255 SolutionNetwork.rsu[2].eth.mac passedUpPk:vector(packetBytes) ETV
attr interpolationmode none
attr source packetSentToUpper
attr title "packets passed to higher layer, vector(packetBytes)"
vector 256 SolutionNetwork.rsu[1].eth.mac rxPkOk:vector(packetBytes) ETV
attr interpolationmode none
attr source rxPkOk
attr title "packets received OK, vector(packetBytes)"
vector 257 SolutionNetwork.rsu[1].eth.mac passedUpPk:vector(packetBytes) ETV
attr interpolationmode none
attr source packetSentToUpper
attr title "packets passed to higher layer, vector(packetBytes)"
vector 258 SolutionNetwork.ES2.eth.mac rxPkOk:vector(packetBytes) ETV
attr interpolationmode none
attr source rxPkOk
attr title "packets received OK, vector(packetBytes)"
vector 259 SolutionNetwork.ES2.eth.mac passedUpPk:vector(packetBytes) ETV
attr interpolationmode none
attr source packetSentToUpper
attr title "packets passed to higher layer, vector(packetBytes)"
vector 260 SolutionNetwork.switch9.eth[0].mac rxPkOk:vector(packetBytes) ETV
attr interpolationmode none
attr source rxPkOk
attr title "packets received OK, vector(packetBytes)"
vector 261 SolutionNetwork.switch9.eth[0].mac passedUpPk:vector(packetBytes) ETV
attr interpolationmode none
attr source packetSentToUpper
attr title "packets passed to higher layer, vector(packetBytes)"
vector 262 SolutionNetwork.switch8.eth[1].mac rxPkOk:vector(packetBytes) ETV
attr interpolationmode none
attr source rxPkOk
attr title "packets received OK, vector(packetBytes)"
vector 263 SolutionNetwork.switch8.eth[1].mac passedUpPk:vector(packetBytes) ETV
attr interpolationmode none
attr source packetSentToUpper
attr title "packets passed to higher layer, vector(packetBytes)"
vector 264 SolutionNetwork.ES3.eth.mac rxPkOk:vector(packetBytes) ETV
attr interpolationmode none
attr source rxPkOk
attr title "packets received OK, vector(packetBytes)"
vector 265 SolutionNetwork.ES3.eth.mac passedUpPk:vector(packetBytes) ETV
attr interpolationmode none
attr source packetSentToUpper
attr title "packets passed to higher layer, vector(packetBytes)"
vector 266 SolutionNetwork.switch13.eth[0].mac rxPkOk:vector(packetBytes) ETV
attr interpolationmode none
attr source rxPkOk
attr title "packets received OK, vector(packetBytes)"
vector 267 SolutionNetwork.switch13.eth[0].mac passedUpPk:vector(packetBytes) ETV
attr interpolationmode none
attr source packetSentToUpper
attr title "packets passed to higher layer, vector(packetBytes)"
vector 268 SolutionNetwork.switch18.eth[0].mac rxPkOk:vector(packetBytes) ETV
attr interpolationmode none
attr source rxPkOk
attr title "packets received OK, vector(packetBytes)"
vector 269 SolutionNetwork.switch18.eth[0].mac passedUpPk:vector(packetBytes) ETV
attr interpolationmode none
attr source packetSentToUpper
attr title "packets passed to higher layer, vector(packetBytes)"
vector 270 SolutionNetwork.switch17.eth[1].mac rxPkOk:vector(packetBytes) ETV
attr interpolationmode none
attr source rxPkOk
attr title "packets received OK, vector(packetBytes)"
vector 271 SolutionNetwork.switch17.eth[1].mac passedUpPk:vector(packetBytes) ETV
attr interpolationmode none
attr source packetSentToUpper
attr title "packets passed to higher layer, vector(packetBytes)"
vector 272 SolutionNetwork.ES6.eth.mac rxPkOk:vector(packetBytes) ETV
attr interpolationmode none
attr source rxPkOk
attr title "packets received OK, vector(packetBytes)"
vector 273 SolutionNetwork.ES6.eth.mac passedUpPk:vector(packetBytes) ETV
attr interpolationmode none
attr source packetSentToUpper
attr title "packets passed to higher layer, vector(packetBytes)"
vector 274 SolutionNetwork.ES0.srv packetReceived:vector(packetBytes) ETV
attr interpolationmode none
attr source packetReceived
attr title "packets received, vector(packetBytes)"
vector 275 SolutionNetwork.ES0.srv packetSent:vector(packetBytes) ETV
attr interpolationmode none
attr source packetSent
attr title "packets sent, vector(packetBytes)"
vector 276 SolutionNetwork.switch4.eth[1].mac packetReceivedFromUpper:vector(packetBytes) ETV
attr interpolationmode none
attr source packetReceivedFromUpper
attr title "packet bytes from higher layer, vector(packetBytes)"
vector 277 SolutionNetwork.switch4.eth[1].mac.queue packetPushed:vector(packetBytes) ETV
attr interpolationmode none
attr title "packet pushed, vector(packetBytes)"
vector 278 SolutionNetwork.switch4.eth[1].mac.queue queueLength:vector ETV
attr interpolationmode sample-hold
attr source "count(packetPushed) - count(packetPopped) - count(packetRemoved) - count(packetDropped)"
attr title "queue length, vector"
vector 279 SolutionNetwork.switch4.eth[1].mac.queue packetPopped:vector(packetBytes) ETV
attr interpolationmode none
attr title "packet popped, vector(packetBytes)"
vector 280 SolutionNetwork.switch4.eth[1].mac.queue queueingTime:vector ETV
attr interpolationmode none
attr source queueingTime(packetPopped)
attr title "queueing times, vector"
attr unit s
vector 281 SolutionNetwork.ES2.srv packetReceived:vector(packetBytes) ETV
attr interpolationmode none
attr source packetReceived
attr title "packets received, vector(packetBytes)"
vector 282 SolutionNetwork.ES2.srv packetSent:vector(packetBytes) ETV
attr interpolationmode none
attr source packetSent
attr title "packets sent, vector(packetBytes)"
vector 283 SolutionNetwork.switch9.eth[1].mac packetReceivedFromUpper:vector(packetBytes) ETV
attr interpolationmode none
attr source packetReceivedFromUpper
attr title "packet bytes from higher layer, vector(packetBytes)"
vector 284 SolutionNetwork.switch9.eth[1].mac.queue packetPushed:vector(packetBytes) ETV
attr interpolationmode none
attr title "packet pushed, vector(packetBytes)"
vector 285 SolutionNetwork.switch9.eth[1].mac.queue queueLength:vector ETV
attr interpolationmode sample-hold
attr source "count(packetPushed) - count(packetPopped) - count(packetRemoved) - count(packetDropped)"
attr title "queue length, vector"
vector 286 SolutionNetwork.switch9.eth[1].mac.queue packetPopped:vector(packetBytes) ETV
attr interpolationmode none
attr title "packet popped, vector(packetBytes)"
vector 287 SolutionNetwork.switch9.eth[1].mac.queue queueingTime:vector ETV
attr interpolationmode none
attr source queueingTime(packetPopped)
attr title "queueing times, vector"
attr unit s
vector 288 SolutionNetwork.switch8.eth[0].mac packetReceivedFromUpper:vector(packetBytes) ETV
attr interpolationmode none
attr source packetReceivedFromUpper
attr title "packet bytes from higher layer, vector(packetBytes)"
vector 289 SolutionNetwork.switch8.eth[0].mac.queue packetPushed:vector(packetBytes) ETV
attr interpolationmode none
attr title "packet pushed, vector(packetBytes)"
vector 290 SolutionNetwork.switch8.eth[0].mac.queue queueLength:vector ETV
attr interpolationmode sample-hold
attr source "count(packetPushed) - count(packetPopped) - count(packetRemoved) - count(packetDropped)"
attr title "queue length, vector"
vector 291 SolutionNetwork.switch8.eth[0].mac.queue packetPopped:vector(packetBytes) ETV
attr interpolationmode none
attr title "packet popped, vector(packetBytes)"
vector 292 SolutionNetwork.switch8.eth[0].mac.queue queueingTime:vector ETV
attr interpolationmode none
attr source queueingTime(packetPopped)
attr title "queueing times, vector"
attr unit s
vector 293 SolutionNetwork.ES3.srv packetReceived:vector(packetBytes) ETV
attr interpolationmode none
attr source packetReceived
attr title "packets received, vector(packetBytes)"
vector 294 SolutionNetwork.ES3.srv packetSent:vector(packetBytes) ETV
attr interpolationmode none
attr source packetSent
attr title "packets sent, vector(packetBytes)"
vector 295 SolutionNetwork.switch13.eth[1].mac packetReceivedFromUpper:vector(packetBytes) ETV
attr interpolationmode none
attr source packetReceivedFromUpper
attr title "packet bytes from higher layer, vector(packetBytes)"
vector 296 SolutionNetwork.switch13.eth[1].mac.queue packetPushed:vector(packetBytes) ETV
attr interpolationmode none
attr title "packet pushed, vector(packetBytes)"
vector 297 SolutionNetwork.switch13.eth[1].mac.queue queueLength:vector ETV
attr interpolationmode sample-hold
attr source "count(packetPushed) - count(packetPopped) - count(packetRemoved) - count(packetDropped)"
attr title "queue length, vector"
vector 298 SolutionNetwork.switch13.eth[1].mac.queue packetPopped:vector(packetBytes) ETV
attr interpolationmode none
attr title "packet popped, vector(packetBytes)"
vector 299 SolutionNetwork.switch13.eth[1].mac.queue queueingTime:vector ETV
attr interpolationmode none
attr source queueingTime(packetPopped)
attr title "queueing times, vector"
attr unit s
vector 300 SolutionNetwork.switch13.eth[2].mac packetReceivedFromUpper:vector(packetBytes) ETV
attr interpolationmode none
attr source packetReceivedFromUpper
attr title "packet bytes from higher layer, vector(packetBytes)"
vector 301 SolutionNetwork.switch13.eth[2].mac.queue packetPushed:vector(packetBytes) ETV
attr interpolationmode none
attr title "packet pushed, vector(packetBytes)"
vector 302 SolutionNetwork.switch13.eth[2].mac.queue queueLength:vector ETV
attr interpolationmode sample-hold
attr source "count(packetPushed) - count(packetPopped) - count(packetRemoved) - count(packetDropped)"
attr title "queue length, vector"
vector 303 SolutionNetwork.switch13.eth[2].mac.queue packetPopped:vector(packetBytes) ETV
attr interpolationmode none
attr title "packet popped, vector(packetBytes)"
vector 304 SolutionNetwork.switch13.eth[2].mac.queue queueingTime:vector ETV
attr interpolationmode none
attr source queueingTime(packetPopped)
attr title "queueing times, vector"
attr unit s
vector 305 SolutionNetwork.switch18.eth[1].mac packetReceivedFromUpper:vector(packetBytes) ETV
attr interpolationmode none
attr source packetReceivedFromUpper
attr title "packet bytes from higher layer, vector(packetBytes)"
vector 306 SolutionNetwork.switch18.eth[1].mac.queue packetPushed:vector(packetBytes) ETV
attr interpolationmode none
attr title "packet pushed, vector(packetBytes)"
vector 307 SolutionNetwork.switch18.eth[1].mac.queue queueLength:vector ETV
attr interpolationmode sample-hold
attr source "count(packetPushed) - count(packetPopped) - count(packetRemoved) - count(packetDropped)"
attr title "queue length, vector"
vector 308 SolutionNetwork.switch18.eth[1].mac.queue packetPopped:vector(packetBytes) ETV
attr interpolationmode none
attr title "packet popped, vector(packetBytes)"
vector 309 SolutionNetwork.switch18.eth[1].mac.queue queueingTime:vector ETV
attr interpolationmode none
attr source queueingTime(packetPopped)
attr title "queueing times, vector"
attr unit s
vector 310 SolutionNetwork.switch17.eth[0].mac packetReceivedFromUpper:vector(packetBytes) ETV
attr interpolationmode none
attr source packetReceivedFromUpper
attr title "packet bytes from higher layer, vector(packetBytes)"
vector 311 SolutionNetwork.switch17.eth[0].mac.queue packetPushed:vector(packetBytes) ETV
attr interpolationmode none
attr title "packet pushed, vector(packetBytes)"
vector 312 SolutionNetwork.switch17.eth[0].mac.queue queueLength:vector ETV
attr interpolationmode sample-hold
attr source "count(packetPushed) - count(packetPopped) - count(packetRemoved) - count(packetDropped)"
attr title "queue length, vector"
vector 313 SolutionNetwork.switch17.eth[0].mac.queue packetPopped:vector(packetBytes) ETV
attr interpolationmode none
attr title "packet popped, vector(packetBytes)"
vector 314 SolutionNetwork.switch17.eth[0].mac.queue queueingTime:vector ETV
attr interpolationmode none
attr source queueingTime(packetPopped)
attr title "queueing times, vector"
attr unit s
vector 315 SolutionNetwork.ES6.srv packetReceived:vector(packetBytes) ETV
attr interpolationmode none
attr source packetReceived
attr title "packets received, vector(packetBytes)"
vector 316 SolutionNetwork.ES6.srv packetSent:vector(packetBytes) ETV
attr interpolationmode none
attr source packetSent
attr title "packets sent, vector(packetBytes)"
vector 317 SolutionNetwork.ES0.llc encapPk:vector(packetBytes) ETV
attr interpolationmode none
attr source encapPk
attr title "packets encapsulated, vector(packetBytes)"
vector 318 SolutionNetwork.ES2.llc encapPk:vector(packetBytes) ETV
attr interpolationmode none
attr source encapPk
attr title "packets encapsulated, vector(packetBytes)"
vector 319 SolutionNetwork.ES3.llc encapPk:vector(packetBytes) ETV
attr interpolationmode none
attr source encapPk
attr title "packets encapsulated, vector(packetBytes)"
vector 320 SolutionNetwork.ES6.llc encapPk:vector(packetBytes) ETV
attr interpolationmode none
attr source encapPk
attr title "packets encapsulated, vector(packetBytes)"
vector 321 SolutionNetwork.ES0.eth.mac packetReceivedFromUpper:vector(packetBytes) ETV
attr interpolationmode none
attr source packetReceivedFromUpper
attr title "packet bytes from higher layer, vector(packetBytes)"
vector 322 SolutionNetwork.ES0.eth.mac.queue packetPushed:vector(packetBytes) ETV
attr interpolationmode none
attr title "packet pushed, vector(packetBytes)"
vector 323 SolutionNetwork.ES0.eth.mac.queue queueLength:vector ETV
attr interpolationmode sample-hold
attr source "count(packetPushed) - count(packetPopped) - count(packetRemoved) - count(packetDropped)"
attr title "queue length, vector"
vector 324 SolutionNetwork.ES0.eth.mac.queue packetPopped:vector(packetBytes) ETV
attr interpolationmode none
attr title "packet popped, vector(packetBytes)"
vector 325 SolutionNetwork.ES0.eth.mac.queue queueingTime:vector ETV
attr interpolationmode none
attr source queueingTime(packetPopped)
attr title "queueing times, vector"
attr unit s
vector 326 SolutionNetwork.ES2.eth.mac packetReceivedFromUpper:vector(packetBytes) ETV
attr interpolationmode none
attr source packetReceivedFromUpper
attr title "packet bytes from higher layer, vector(packetBytes)"
vector 327 SolutionNetwork.ES2.eth.mac.queue packetPushed:vector(packetBytes) ETV
attr interpolationmode none
attr title "packet pushed, vector(packetBytes)"
vector 328 SolutionNetwork.ES2.eth.mac.queue queueLength:vector ETV
attr interpolationmode sample-hold
attr source "count(packetPushed) - count(packetPopped) - count(packetRemoved) - count(packetDropped)"
attr title "queue length, vector"
vector 329 SolutionNetwork.ES2.eth.mac.queue packetPopped:vector(packetBytes) ETV
attr interpolationmode none
attr title "packet popped, vector(packetBytes)"
vector 330 SolutionNetwork.ES2.eth.mac.queue queueingTime:vector ETV
attr interpolationmode none
attr source queueingTime(packetPopped)
attr title "queueing times, vector"
attr unit s
vector 331 SolutionNetwork.ES3.eth.mac packetReceivedFromUpper:vector(packetBytes) ETV
attr interpolationmode none
attr source packetReceivedFromUpper
attr title "packet bytes from higher layer, vector(packetBytes)"
vector 332 SolutionNetwork.ES3.eth.mac.queue packetPushed:vector(packetBytes) ETV
attr interpolationmode none
attr title "packet pushed, vector(packetBytes)"
vector 333 SolutionNetwork.ES3.eth.mac.queue queueLength:vector ETV
attr interpolationmode sample-hold
attr source "count(packetPushed) - count(packetPopped) - count(packetRemoved) - count(packetDropped)"
attr title "queue length, vector"
vector 334 SolutionNetwork.ES3.eth.mac.queue packetPopped:vector(packetBytes) ETV
attr interpolationmode none
attr title "packet popped, vector(packetBytes)"
vector 335 SolutionNetwork.ES3.eth.mac.queue queueingTime:vector ETV
attr interpolationmode none
attr source queueingTime(packetPopped)
attr title "queueing times, vector"
attr unit s
vector 336 SolutionNetwork.ES6.eth.mac packetReceivedFromUpper:vector(packetBytes) ETV
attr interpolationmode none
attr source packetReceivedFromUpper
attr title "packet bytes from higher layer, vector(packetBytes)"
vector 337 SolutionNetwork.ES6.eth.mac.queue packetPushed:vector(packetBytes) ETV
attr interpolationmode none
attr title "packet pushed, vector(packetBytes)"
vector 338 SolutionNetwork.ES6.eth.mac.queue queueLength:vector ETV
attr interpolationmode sample-hold
attr source "count(packetPushed) - count(packetPopped) - count(packetRemoved) - count(packetDropped)"
attr title "queue length, vector"
vector 339 SolutionNetwork.ES6.eth.mac.queue packetPopped:vector(packetBytes) ETV
attr interpolationmode none
attr title "packet popped, vector(packetBytes)"
vector 340 SolutionNetwork.ES6.eth.mac.queue queueingTime:vector ETV
attr interpolationmode none
attr source queueingTime(packetPopped)
attr title "queueing times, vector"
attr unit s
vector 341 SolutionNetwork.switch1.eth[2].mac rxPkOk:vector(packetBytes) ETV
attr interpolationmode none
attr source rxPkOk
attr title "packets received OK, vector(packetBytes)"
vector 342 SolutionNetwork.switch1.eth[2].mac passedUpPk:vector(packetBytes) ETV
attr interpolationmode none
attr source packetSentToUpper
attr title "packets passed to higher layer, vector(packetBytes)"
vector 343 SolutionNetwork.switch5.eth[1].mac rxPkOk:vector(packetBytes) ETV
attr interpolationmode none
attr source rxPkOk
attr title "packets received OK, vector(packetBytes)"
vector 344 SolutionNetwork.switch5.eth[1].mac passedUpPk:vector(packetBytes) ETV
attr interpolationmode none
attr source packetSentToUpper
attr title "packets passed to higher layer, vector(packetBytes)"
vector 345 SolutionNetwork.switch15.eth[2].mac rxPkOk:vector(packetBytes) ETV
attr interpolationmode none
attr source rxPkOk
attr title "packets received OK, vector(packetBytes)"
vector 346 SolutionNetwork.switch15.eth[2].mac passedUpPk:vector(packetBytes) ETV
attr interpolationmode none
attr source packetSentToUpper
attr title "packets passed to higher layer, vector(packetBytes)"
vector 347 SolutionNetwork.switch1.eth[0].mac packetReceivedFromUpper:vector(packetBytes) ETV
attr interpolationmode none
attr source packetReceivedFromUpper
attr title "packet bytes from higher layer, vector(packetBytes)"
vector 348 SolutionNetwork.switch1.eth[0].mac.queue packetPushed:vector(packetBytes) ETV
attr interpolationmode none
attr title "packet pushed, vector(packetBytes)"
vector 349 SolutionNetwork.switch1.eth[0].mac.queue queueLength:vector ETV
attr interpolationmode sample-hold
attr source "count(packetPushed) - count(packetPopped) - count(packetRemoved) - count(packetDropped)"
attr title "queue length, vector"
vector 350 SolutionNetwork.switch1.eth[0].mac.queue packetPopped:vector(packetBytes) ETV
attr interpolationmode none
attr title "packet popped, vector(packetBytes)"
vector 351 SolutionNetwork.switch1.eth[0].mac.queue queueingTime:vector ETV
attr interpolationmode none
attr source queueingTime(packetPopped)
attr title "queueing times, vector"
attr unit s
vector 352 SolutionNetwork.switch15.eth[3].mac packetReceivedFromUpper:vector(packetBytes) ETV
attr interpolationmode none
attr source packetReceivedFromUpper
attr title "packet bytes from higher layer, vector(packetBytes)"
vector 353 SolutionNetwork.switch15.eth[3].mac.queue packetPushed:vector(packetBytes) ETV
attr interpolationmode none
attr title "packet pushed, vector(packetBytes)"
vector 354 SolutionNetwork.switch15.eth[3].mac.queue queueLength:vector ETV
attr interpolationmode sample-hold
attr source "count(packetPushed) - count(packetPopped) - count(packetRemoved) - count(packetDropped)"
attr title "queue length, vector"
vector 355 SolutionNetwork.switch15.eth[3].mac.queue packetPopped:vector(packetBytes) ETV
attr interpolationmode none
attr title "packet popped, vector(packetBytes)"
vector 356 SolutionNetwork.switch15.eth[3].mac.queue queueingTime:vector ETV
attr interpolationmode none
attr source queueingTime(packetPopped)
attr title "queueing times, vector"
attr unit s
vector 357 SolutionNetwork.switch4.eth[1].mac txPk:vector(packetBytes) ETV
attr interpolationmode none
attr source packetSentToLower
attr title "packets transmitted, vector(packetBytes)"
vector 358 SolutionNetwork.switch9.eth[1].mac txPk:vector(packetBytes) ETV
attr interpolationmode none
attr source packetSentToLower
attr title "packets transmitted, vector(packetBytes)"
vector 359 SolutionNetwork.switch13.eth[1].mac txPk:vector(packetBytes) ETV
attr interpolationmode none
attr source packetSentToLower
attr title "packets transmitted, vector(packetBytes)"
vector 360 SolutionNetwork.switch13.eth[2].mac txPk:vector(packetBytes) ETV
attr interpolationmode none
attr source packetSentToLower
attr title "packets transmitted, vector(packetBytes)"
vector 361 SolutionNetwork.switch18.eth[1].mac txPk:vector(packetBytes) ETV
attr interpolationmode none
attr source packetSentToLower
attr title "packets transmitted, vector(packetBytes)"
vector 362 SolutionNetwork.switch17.eth[0].mac txPk:vector(packetBytes) ETV
attr interpolationmode none
attr source packetSentToLower
attr title "packets transmitted, vector(packetBytes)"
vector 363 SolutionNetwork.ES0.eth.mac txPk:vector(packetBytes) ETV
attr interpolationmode none
attr source packetSentToLower
attr title "packets transmitted, vector(packetBytes)"
vector 364 SolutionNetwork.switch8.eth[0].mac txPk:vector(packetBytes) ETV
attr interpolationmode none
attr source packetSentToLower
attr title "packets transmitted, vector(packetBytes)"
vector 365 SolutionNetwork.ES2.eth.mac txPk:vector(packetBytes) ETV
attr interpolationmode none
attr source packetSentToLower
attr title "packets transmitted, vector(packetBytes)"
vector 366 SolutionNetwork.ES3.eth.mac txPk:vector(packetBytes) ETV
attr interpolationmode none
attr source packetSentToLower
attr title "packets transmitted, vector(packetBytes)"
vector 367 SolutionNetwork.ES6.eth.mac txPk:vector(packetBytes) ETV
attr interpolationmode none
attr source packetSentToLower
attr title "packets transmitted, vector(packetBytes)"
vector 368 SolutionNetwork.switch1.eth[0].mac txPk:vector(packetBytes) ETV
attr interpolationmode none
attr source packetSentToLower
attr title "packets transmitted, vector(packetBytes)"
vector 369 SolutionNetwork.switch15.eth[3].mac txPk:vector(packetBytes) ETV
attr interpolationmode none
attr source packetSentToLower
attr title "packets transmitted, vector(packetBytes)"
vector 370 SolutionNetwork.ES1.eth.mac rxPkOk:vector(packetBytes) ETV
attr interpolationmode none
attr source rxPkOk
attr title "packets received OK, vector(packetBytes)"
vector 371 SolutionNetwork.ES1.eth.mac passedUpPk:vector(packetBytes) ETV
attr interpolationmode none
attr source packetSentToUpper
attr title "packets passed to higher layer, vector(packetBytes)"
vector 372 SolutionNetwork.switch10.eth[1].mac rxPkOk:vector(packetBytes) ETV
attr interpolationmode none
attr source rxPkOk
attr title "packets received OK, vector(packetBytes)"
vector 373 SolutionNetwork.switch10.eth[1].mac passedUpPk:vector(packetBytes) ETV
attr interpolationmode none
attr source packetSentToUpper
attr title "packets passed to higher layer, vector(packetBytes)"
vector 374 SolutionNetwork.ES4.eth.mac rxPkOk:vector(packetBytes) ETV
attr interpolationmode none
attr source rxPkOk
attr title "packets received OK, vector(packetBytes)"
vector 375 SolutionNetwork.ES4.eth.mac passedUpPk:vector(packetBytes) ETV
attr interpolationmode none
attr source packetSentToUpper
attr title "packets passed to higher layer, vector(packetBytes)"
vector 376 SolutionNetwork.switch14.eth[0].mac rxPkOk:vector(packetBytes) ETV
attr interpolationmode none
attr source rxPkOk
attr title "packets received OK, vector(packetBytes)"
vector 377 SolutionNetwork.switch14.eth[0].mac passedUpPk:vector(packetBytes) ETV
attr interpolationmode none
attr source packetSentToUpper
attr title "packets passed to higher layer, vector(packetBytes)"
vector 378 SolutionNetwork.switch15.eth[0].mac rxPkOk:vector(packetBytes) ETV
attr interpolationmode none
attr source rxPkOk
attr title "packets received OK, vector(packetBytes)"
vector 379 SolutionNetwork.switch15.eth[0].mac passedUpPk:vector(packetBytes) ETV
attr interpolationmode none
attr source packetSentToUpper
attr title "packets passed to higher layer, vector(packetBytes)"
vector 380 SolutionNetwork.switch10.eth[4].mac rxPkOk:vector(packetBytes) ETV
attr interpolationmode none
attr source rxPkOk
attr title "packets received OK, vector(packetBytes)"
vector 381 SolutionNetwork.switch10.eth[4].mac passedUpPk:vector(packetBytes) ETV
attr interpolationmode none
attr source packetSentToUpper
attr title "packets passed to higher layer, vector(packetBytes)"
vector 382 SolutionNetwork.ES1.srv packetReceived:vector(packetBytes) ETV
attr interpolationmode none
attr source packetReceived
attr title "packets received, vector(packetBytes)"
vector 383 SolutionNetwork.ES1.srv packetSent:vector(packetBytes) ETV
attr interpolationmode none
attr source packetSent
attr title "packets sent, vector(packetBytes)"
vector 384 SolutionNetwork.switch10.eth[0].mac packetReceivedFromUpper:vector(packetBytes) ETV
attr interpolationmode none
attr source packetReceivedFromUpper
attr title "packet bytes from higher layer, vector(packetBytes)"
vector 385 SolutionNetwork.switch10.eth[0].mac.queue packetPushed:vector(packetBytes) ETV
attr interpolationmode none
attr title "packet pushed, vector(packetBytes)"
vector 386 SolutionNetwork.switch10.eth[0].mac.queue queueLength:vector ETV
attr interpolationmode sample-hold
attr source "count(packetPushed) - count(packetPopped) - count(packetRemoved) - count(packetDropped)"
attr title "queue length, vector"
vector 387 SolutionNetwork.switch10.eth[0].mac.queue packetPopped:vector(packetBytes) ETV
attr interpolationmode none
attr title "packet popped, vector(packetBytes)"
vector 388 SolutionNetwork.switch10.eth[0].mac.queue queueingTime:vector ETV
attr interpolationmode none
attr source queueingTime(packetPopped)
attr title "queueing times, vector"
attr unit s
vector 389 SolutionNetwork.ES4.srv packetReceived:vector(packetBytes) ETV
attr interpolationmode none
attr source packetReceived
attr title "packets received, vector(packetBytes)"
vector 390 SolutionNetwork.ES4.srv packetSent:vector(packetBytes) ETV
[...]
286	36874028 20737 2575140 2950878 76.794848399471 99.161256923646 630 109 109 68670 7485030
287	36894765 19477 2575140 2950878 76.794848399471 99.161256923646 630 0 0 0 0
288	36914242 20903 2574550 2950314 76.787675706508 99.148154923646 635 109 109 69215 7544435
289	36935145 20903 2574550 2950314 76.787675706508 99.148154923646 635 109 109 69215 7544435
290	36956048 39266 2574550 2950314 76.787675706508 99.148154923646 1270 0 1 635 635
291	36995314 20903 2574550 2950314 76.787675706508 99.148154923646 635 109 109 69215 7544435
292	37016217 19633 2574550 2950314 76.787675706508 99.148154923646 635 0 0 0 0
293	37035850 384 2582489 2771065 77.084648524931 84.079551768499 12 88 88 1056 92928
294	37036234 5683 2574606 2950321 76.787792239471 99.148165243646 178 88 88 15664 1378432
295	37041917 5301 2574614 2950329 76.787802559471 99.148175563646 161 109 109 17549 1912841
296	37047218 5301 2574614 2950329 76.787802559471 99.148175563646 161 109 109 17549 1912841
297	37052519 9958 2574614 2950329 76.787802559471 99.148175563646 322 0 1 161 161
298	37062477 5301 2574614 2950329 76.787802559471 99.148175563646 161 109 109 17549 1912841
299	37067778 4979 2574614 2950329 76.787802559471 99.148175563646 161 0 0 0 0
300	37072757 5301 2574622 2950337 76.787812879471 99.148185883646 161 109 109 17549 1912841
301	37078058 5301 2574622 2950337 76.787812879471 99.148185883646 161 109 109 17549 1912841
302	37083359 9958 2574622 2950337 76.787812879471 99.148185883646 322 0 1 161 161
303	37093317 5301 2574622 2950337 76.787812879471 99.148185883646 161 109 109 17549 1912841
304	37098618 4979 2574622 2950337 76.787812879471 99.148185883646 161 0 0 0 0
305	37103597 20650 2574932 2950920 76.791830639471 99.164285003646 627 109 109 68343 7449387
306	37124247 20650 2574932 2950920 76.791830639471 99.164285003646 627 109 109 68343 7449387
307	37144897 38792 2574932 2950920 76.791830639471 99.164285003646 1254 0 1 627 627
308	37183689 20650 2574932 2950920 76.791830639471 99.164285003646 627 109 109 68343 7449387
309	37204339 19396 2574932 2950920 76.791830639471 99.164285003646 627 0 0 0 0
310	37223735 20519 2574667 2950163 76.788726346508 99.145157803646 623 109 109 67907 7401863
311	37244254 20519 2574667 2950163 76.788726346508 99.145157803646 623 109 109 67907 7401863
312	37264773 38546 2574667 2950163 76.788726346508 99.145157803646 1246 0 1 623 623
313	37303319 20519 2574667 2950163 76.788726346508 99.145157803646 623 109 109 67907 7401863
314	37323838 19273 2574667 2950163 76.788726346508 99.145157803646 623 0 0 0 0
316	37343111 5108 2581400 2950170 77.061100178084 99.145168123646 160 88 88 14080 1239040
317	37348219 6575 2575059 2950573 76.793817439471 99.154190443646 206 88 88 18128 1595264
318	37354794 5140 2574847 2950457 76.790809999471 99.151183003646 161 88 88 14168 1246784
319	37359934 5683 2574607 2950322 76.787792239471 99.148165243646 178 88 88 15664 1378432
320	37365617 5108 2581401 2950171 77.061100178084 99.145168123646 160 88 88 14080 1239040
321	37370725 6781 2575060 2950574 76.793817439471 99.154190443646 206 109 109 22454 2447486
322	37377506 6781 2575060 2950574 76.793817439471 99.154190443646 206 109 109 22454 2447486
323	37384287 12738 2575060 2950574 76.793817439471 99.154190443646 412 0 1 206 206
324	37397025 6781 2575060 2950574 76.793817439471 99.154190443646 206 109 109 22454 2447486
325	37403806 6369 2575060 2950574 76.793817439471 99.154190443646 206 0 0 0 0
326	37410175 5301 2574848 2950458 76.790809999471 99.151183003646 161 109 109 17549 1912841
327	37415476 5301 2574848 2950458 76.790809999471 99.151183003646 161 109 109 17549 1912841
328	37420777 9958 2574848 2950458 76.790809999471 99.151183003646 322 0 1 161 161
329	37430735 5301 2574848 2950458 76.790809999471 99.151183003646 161 109 109 17549 1912841
330	37436036 4979 2574848 2950458 76.790809999471 99.151183003646 161 0 0 0 0
331	37441015 5861 2574608 2950323 76.787792239471 99.148165243646 178 109 109 19402 2114818
332	37446876 5861 2574608 2950323 76.787792239471 99.148165243646 178 109 109 19402 2114818
333	37452737 11010 2574608 2950323 76.787792239471 99.148165243646 356 0 1 178 178
334	37463747 5861 2574608 2950323 76.787792239471 99.148165243646 178 109 109 19402 2114818
335	37469608 5516 2574608 2950323 76.787792239471 99.148165243646 178 0 8.93484e-006 8.93484e-006 7.98313658256e-011
336	37475124 5268 2581402 2950172 77.061100178084 99.145168123646 160 109 109 17440 1900960
337	37480392 5268 2581402 2950172 77.061100178084 99.145168123646 160 109 109 17440 1900960
338	37485660 9896 2581402 2950172 77.061100178084 99.145168123646 320 0 1 160 160
339	37495556 5268 2581402 2950172 77.061100178084 99.145168123646 160 109 109 17440 1900960
340	37500824 4948 2581402 2950172 77.061100178084 99.145168123646 160 0 0 0 0
341	37505772 18486 2574874 2950484 76.791713146508 99.152171723646 562 109 109 61258 6677122
342	37524258 18486 2574874 2950484 76.791713146508 99.152171723646 562 109 109 61258 6677122
343	37542744 19641 2575186 2950810 76.795847439471 99.158228843646 597 109 109 65073 7092957
344	37562385 19641 2575186 2950810 76.795847439471 99.158228843646 597 109 109 65073 7092957
345	37582026 7278 2577849 2955661 76.915983407801 100.904118655701 221 109 109 24089 2625701
346	37589304 7278 2577849 2955661 76.915983407801 100.904118655701 221 109 109 24089 2625701
347	37596582 19005 2574876 2941241 76.791713146508 97.165213689373 578 109 109 63002 6867218
348	37615587 19005 2574876 2941241 76.791713146508 97.165213689373 578 109 109 63002 6867218
349	37634592 35698 2574876 2941241 76.791713146508 97.165213689373 1156 0 1 578 578
350	37670290 19005 2574876 2941241 76.791713146508 97.165213689373 578 109 109 63002 6867218
351	37689295 17849 2574876 2941241 76.791713146508 97.165213689373 578 0 0 0 0
352	37707144 22041 2574536 2955663 76.786814799471 100.904118655701 669 109 109 72921 7948389
353	37729185 22041 2574536 2955663 76.786814799471 100.904118655701 669 109 109 72921 7948389
354	37751226 41406 2574536 2955663 76.786814799471 100.904118655701 1338 0 1 669 669
355	37792632 22041 2574536 2955663 76.786814799471 100.904118655701 669 109 109 72921 7948389
356	37814673 20703 2574536 2955663 76.786814799471 100.904118655701 669 0 0 0 0
357	37835376 5565 2574921 2950496 76.791818399471 99.152191403646 169 109 109 18421 2007889
358	37840941 20737 2575142 2950881 76.794857759471 99.161266283646 630 109 109 68670 7485030
359	37861678 5301 2574618 2950333 76.787811919471 99.148184923646 161 109 109 17549 1912841
360	37866979 5301 2574625 2950340 76.787822239471 99.148195243646 161 109 109 17549 1912841
361	37872280 20650 2574935 2950923 76.791839999471 99.164294363646 627 109 109 68343 7449387
362	37892930 20519 2574669 2950166 76.788735706508 99.145167163646 623 109 109 67907 7401863
363	37913449 6781 2575063 2950577 76.793827759471 99.154200763646 206 109 109 22454 2447486
364	37920230 20903 2574553 2950317 76.787685066508 99.148164283646 635 109 109 69215 7544435
365	37941133 5301 2574851 2950461 76.790820319471 99.151193323646 161 109 109 17549 1912841
366	37946434 5861 2574612 2950327 76.787802559471 99.148175563646 178 109 109 19402 2114818
367	37952295 5268 2581406 2950175 77.061110498084 99.145178443646 160 109 109 17440 1900960
368	37957563 19005 2574879 2941243 76.791722506508 97.165223049373 578 109 109 63002 6867218
369	37976568 22041 2574539 2955665 76.786824159471 100.904128015701 669 109 109 72921 7948389
370	37998609 5565 2574990 2950532 76.792818399471 99.153191403646 169 109 109 18421 2007889
371	38004174 5565 2574990 2950532 76.792818399471 99.153191403646 169 109 109 18421 2007889
372	38009739 20737 2575193 2950890 76.795857759471 99.162266283646 630 109 109 68670 7485030
373	38030476 20737 2575193 2950890 76.795857759471 99.162266283646 630 109 109 68670 7485030
374	38051213 5301 2574698 2950378 76.788811919471 99.149184923646 161 109 109 17549 1912841
375	38056514 5301 2574698 2950378 76.788811919471 99.149184923646 161 109 109 17549 1912841
376	38061815 5301 2574707 2950387 76.788822239471 99.149195243646 161 109 109 17549 1912841
377	38067116 5301 2574707 2950387 76.788822239471 99.149195243646 161 109 109 17549 1912841
378	38072417 20650 2575006 2950930 76.792839999471 99.165294363646 627 109 109 68343 7449387
379	38093067 20650 2575006 2950930 76.792839999471 99.165294363646 627 109 109 68343 7449387
380	38113717 20519 2574743 2950218 76.789735706508 99.146167163646 623 109 109 67907 7401863
381	38134236 20519 2574743 2950218 76.789735706508 99.146167163646 623 109 109 67907 7401863
382	38154755 256 2581459 2724987 77.063069218084 82.084360021721 8 88 88 704 61952
383	38155011 5488 2574993 2950535 76.792818399471 99.153191403646 172 88 88 15136 1331968
384	38160499 3728 2575714 2796944 76.817416888278 85.441408225787 113 109 109 12317 1342553
385	38164227 3728 2575714 2796944 76.817416888278 85.441408225787 113 109 109 12317 1342553
386	38167955 7004 2575714 2796944 76.817416888278 85.441408225787 226 0 1 113 113
387	38174959 3728 2575714 2796944 76.817416888278 85.441408225787 113 109 109 12317 1342553
388	38178687 3502 2575714 2796944 76.817416888278 85.441408225787 113 0 0 0 0
390	38182189 5140 2574701 2950381 76.788811919471 99.149184923646 161 88 88 14168 1246784
391	38187329 5301 2574710 2950390 76.788822239471 99.149195243646 161 109 109 17549 1912841
392	38192630 5301 2574710 2950390 76.788822239471 99.149195243646 161 109 109 17549 1912841
393	38197931 9958 2574710 2950390 76.788822239471 99.149195243646 322 0 1 161 161
394	38207889 5301 2574710 2950390 76.788822239471 99.149195243646 161 109 109 17549 1912841
395	38213190 4979 2574710 2950390 76.788822239471 99.149195243646 161 0 0 0 0
396	38218169 5488 2574994 2950536 76.792818399471 99.153191403646 172 88 88 15136 1331968
397	38223657 5140 2574702 2950382 76.788811919471 99.149184923646 161 88 88 14168 1246784
398	38228797 5660 2574995 2950537 76.792818399471 99.153191403646 172 109 109 18748 2043532
399	38234457 5660 2574995 2950537 76.792818399471 99.153191403646 172 109 109 18748 2043532
400	38240117 10632 2574995 2950537 76.792818399471 99.153191403646 344 0 1 172 172
401	38250749 5660 2574995 2950537 76.792818399471 99.153191403646 172 109 109 18748 2043532
402	38256409 5316 2574995 2950537 76.792818399471 99.153191403646 172 0 0 0 0
403	38261725 5301 2574703 2950383 76.788811919471 99.149184923646 161 109 109 17549 1912841
404	38267026 5301 2574703 2950383 76.788811919471 99.149184923646 161 109 109 17549 1912841
405	38272327 9958 2574703 2950383 76.788811919471 99.149184923646 322 0 1 161 161
406	38282285 5301 2574703 2950383 76.788811919471 99.149184923646 161 109 109 17549 1912841
407	38287586 4979 2574703 2950383 76.788811919471 99.149184923646 161 0 0 0 0
408	38292565 6781 2575124 2950646 76.794827759471 99.155200763646 206 109 109 22454 2447486
409	38299346 6781 2575124 2950646 76.794827759471 99.155200763646 206 109 109 22454 2447486
410	38306127 20903 2574637 2950365 76.788685066508 99.149164283646 635 109 109 69215 7544435
411	38327030 20903 2574637 2950365 76.788685066508 99.149164283646 635 109 109 69215 7544435
412	38347933 5301 2574923 2950498 76.791820319471 99.152193323646 161 109 109 17549 1912841
413	38353234 5301 2574923 2950498 76.791820319471 99.152193323646 161 109 109 17549 1912841
414	38358535 5861 2574694 2950374 76.788802559471 99.149175563646 178 109 109 19402 2114818
415	38364396 5861 2574694 2950374 76.788802559471 99.149175563646 178 109 109 19402 2114818
416	38370257 5301 2574568 2950226 76.787706666508 99.146178443646 161 109 109 17549 1912841
417	38375558 5301 2574568 2950226 76.787706666508 99.146178443646 161 109 109 17549 1912841
418	38380859 19005 2574951 2941246 76.792722506508 97.166223049373 578 109 109 63002 6867218
419	38399864 19005 2574951 2941246 76.792722506508 97.166223049373 578 109 109 63002 6867218
420	38418869 22041 2574627 2955668 76.787824159471 100.905128015701 669 109 109 72921 7948389
421	38440910 22041 2574627 2955668 76.787824159471 100.905128015701 669 109 109 72921 7948389
422	38462951 6781 2575126 2950648 76.794827759471 99.155200763646 206 109 109 22454 2447486
423	38469732 6781 2575126 2950648 76.794827759471 99.155200763646 206 109 109 22454 2447486
424	38476513 12738 2575126 2950648 76.794827759471 99.155200763646 412 0 1 206 206
425	38489251 6781 2575126 2950648 76.794827759471 99.155200763646 206 109 109 22454 2447486
426	38496032 6369 2575126 2950648 76.794827759471 99.155200763646 206 0 0 0 0
427	38502401 5301 2574925 2950500 76.791820319471 99.152193323646 161 109 109 17549 1912841
428	38507702 5301 2574925 2950500 76.791820319471 99.152193323646 161 109 109 17549 1912841
429	38513003 9958 2574925 2950500 76.791820319471 99.152193323646 322 0 1 161 161
430	38522961 5301 2574925 2950500 76.791820319471 99.152193323646 161 109 109 17549 1912841
431	38528262 4979 2574925 2950500 76.791820319471 99.152193323646 161 0 0 0 0
432	38533241 5861 2574696 2950376 76.788802559471 99.149175563646 178 109 109 19402 2114818
433	38539102 5861 2574696 2950376 76.788802559471 99.149175563646 178 109 109 19402 2114818
434	38544963 11010 2574696 2950376 76.788802559471 99.149175563646 356 0 1 178 178
435	38555973 5861 2574696 2950376 76.788802559471 99.149175563646 178 109 109 19402 2114818
436	38561834 5505 2574696 2950376 76.788802559471 99.149175563646 178 0 0 0 0
437	38567339 5301 2574571 2950228 76.787706666508 99.146178443646 161 109 109 17549 1912841
438	38572640 5301 2574571 2950228 76.787706666508 99.146178443646 161 109 109 17549 1912841
439	38577941 9958 2574571 2950228 76.787706666508 99.146178443646 322 0 1 161 161
440	38587899 5301 2574571 2950228 76.787706666508 99.146178443646 161 109 109 17549 1912841
441	38593200 4979 2574571 2950228 76.787706666508 99.146178443646 161 0 0 0 0
442	38598179 3728 2575716 2796946 76.817426248278 85.441417585787 113 109 109 12317 1342553
443	38601907 5301 2574713 2950393 76.788831599471 99.149204603646 161 109 109 17549 1912841
444	38607208 5660 2574998 2950540 76.792828719471 99.153201723646 172 109 109 18748 2043532
445	38612868 5301 2574708 2950388 76.788822239471 99.149195243646 161 109 109 17549 1912841
446	38618169 5301 2574928 2950503 76.791829679471 99.152202683646 161 109 109 17549 1912841
447	38623470 5861 2574699 2950379 76.788811919471 99.149184923646 178 109 109 19402 2114818
448	38629331 5301 2574574 2950231 76.787716026508 99.146187803646 161 109 109 17549 1912841
449	38634632 6781 2575129 2950651 76.794837119471 99.155210123646 206 109 109 22454 2447486
450	38641413 3728 2575719 2796984 76.818426248278 85.442417585787 113 109 109 12317 1342553
451	38645141 3728 2575719 2796984 76.818426248278 85.442417585787 113 109 109 12317 1342553
452	38648869 5301 2574784 2950429 76.789831599471 99.150204603646 161 109 109 17549 1912841
453	38654170 5301 2574784 2950429 76.789831599471 99.150204603646 161 109 109 17549 1912841
455	38659471 5140 2574787 2950432 76.789831599471 99.150204603646 161 88 88 14168 1246784
456	38664611 5140 2574788 2950433 76.789831599471 99.150204603646 161 88 88 14168 1246784
457	38669751 5301 2574789 2950434 76.789831599471 99.150204603646 161 109 109 17549 1912841
458	38675052 5301 2574789 2950434 76.789831599471 99.150204603646 161 109 109 17549 1912841
459	38680353 9958 2574789 2950434 76.789831599471 99.150204603646 322 0 1 161 161
460	38690311 5301 2574789 2950434 76.789831599471 99.150204603646 161 109 109 17549 1912841
461	38695612 4979 2574789 2950434 76.789831599471 99.150204603646 161 0 0 0 0
462	38700591 5660 2575064 2950578 76.793828719471 99.154201723646 172 109 109 18748 2043532
463	38706251 5660 2575064 2950578 76.793828719471 99.154201723646 172 109 109 18748 2043532
464	38711911 5301 2574779 2950424 76.789822239471 99.150195243646 161 109 109 17549 1912841
465	38717212 5301 2574779 2950424 76.789822239471 99.150195243646 161 109 109 17549 1912841
466	38722513 5301 2574999 2950541 76.792829679471 99.153202683646 161 109 109 17549 1912841
467	38727814 5301 2574999 2950541 76.792829679471 99.153202683646 161 109 109 17549 1912841
468	38733115 5861 2574772 2950417 76.789811919471 99.150184923646 178 109 109 19402 2114818
469	38738976 5861 2574772 2950417 76.789811919471 99.150184923646 178 109 109 19402 2114818
470	38744837 5334 2574534 2950284 76.786814799471 99.147187803646 162 109 109 17658 1924722
471	38750171 5334 2574534 2950284 76.786814799471 99.147187803646 162 109 109 17658 1924722
472	38755505 5660 2575067 2950581 76.793828719471 99.154201723646 172 109 109 18748 2043532
473	38761165 5660 2575067 2950581 76.793828719471 99.154201723646 172 109 109 18748 2043532
474	38766825 10632 2575067 2950581 76.793828719471 99.154201723646 344 0 1 172 172
475	38777457 5660 2575067 2950581 76.793828719471 99.154201723646 172 109 109 18748 2043532
476	38783117 5316 2575067 2950581 76.793828719471 99.154201723646 172 0 0 0 0
477	38788433 10635 2574564 2950521 76.787696346508 99.152224283646 323 109 109 35207 3837563
478	38799068 10635 2574564 2950521 76.787696346508 99.152224283646 323 109 109 35207 3837563
479	38809703 19978 2574564 2950521 76.787696346508 99.152224283646 646 0 1 323 323
480	38829681 10635 2574564 2950521 76.787696346508 99.152224283646 323 109 109 35207 3837563
481	38840316 9989 2574564 2950521 76.787696346508 99.152224283646 323 0 0 0 0
482	38850305 6781 2575180 2950749 76.795837119471 99.156210123646 206 109 109 22454 2447486
483	38857086 6781 2575180 2950749 76.795837119471 99.156210123646 206 109 109 22454 2447486
484	38863867 5301 2574792 2950437 76.789841919471 99.150214923646 161 109 109 17549 1912841
485	38869168 5660 2575070 2950584 76.793838079471 99.154211083646 172 109 109 18748 2043532
486	38874828 10635 2574567 2950523 76.787705706508 99.152233643646 323 109 109 35207 3837563
487	38885463 5301 2574866 2950476 76.790841919471 99.151214923646 161 109 109 17549 1912841
488	38890764 5301 2574866 2950476 76.790841919471 99.151214923646 161 109 109 17549 1912841
489	38896065 5660 2575130 2950652 76.794838079471 99.155211083646 172 109 109 18748 2043532
490	38901725 5660 2575130 2950652 76.794838079471 99.155211083646 172 109 109 18748 2043532
491	38907385 10635 2574650 2950562 76.788705706508 99.153233643646 323 109 109 35207 3837563
492	38918020 10635 2574650 2950562 76.788705706508 99.153233643646 323 109 109 35207 3837563
493	38928655 5301 2574869 2950479 76.790841919471 99.151214923646 161 109 109 17549 1912841
494	38933956 5301 2574869 2950479 76.790841919471 99.151214923646 161 109 109 17549 1912841
495	38939257 9958 2574869 2950479 76.790841919471 99.151214923646 322 0 1 161 161
496	38949215 5301 2574869 2950479 76.790841919471 99.151214923646 161 109 109 17549 1912841
497	38954516 4979 2574869 2950479 76.790841919471 99.151214923646 161 0 0 0 0
498	38959495 10635 2574653 2950565 76.788705706508 99.153233643646 323 109 109 35207 3837563
499	38970130 10635 2574653 2950565 76.788705706508 99.153233643646 323 109 109 35207 3837563
500	38980765 19978 2574653 2950565 76.788705706508 99.153233643646 646 0 1 323 323
501	39000743 10635 2574653 2950565 76.788705706508 99.153233643646 323 109 109 35207 3837563
502	39011378 9989 2574653 2950565 76.788705706508 99.153233643646 323 0 0 0 0
503	39021367 5301 2574871 2950481 76.790851279471 99.151224283646 161 109 109 17549 1912841
504	39026668 10635 2574656 2950567 76.788715066508 99.153243003646 323 109 109 35207 3837563
505	39037303 5334 2574561 2950518 76.787696346508 99.152224283646 162 109 109 17658 1924722
506	39042637 5334 2574561 2950518 76.787696346508 99.152224283646 162 109 109 17658 1924722
507	39047971 10668 2574554 2950604 76.787686026508 99.154243003646 324 109 109 35316 3849444
508	39058639 10668 2574554 2950604 76.787686026508 99.154243003646 324 109 109 35316 3849444

