version 2
run Default-0-20210623-18:23:52-4284
attr configname Default
attr datetime 20210623-18:23:52
attr experiment Default
attr inifile omnetpp.ini
attr iterationvars ""
attr iterationvarsf ""
attr measurement ""
attr network SolutionNetwork
attr processid 4284
attr repetition 0
attr replication #0
attr resultdir results
attr runnumber 0
attr seedset 4284
param *.playgroundSizeX 2600m
param *.playgroundSizeY 2500m
param *.playgroundSizeZ 50m
param *.annotations.draw true
param *.obstacles.debug false
param *.manager.updateInterval 1s
param *.manager.host "\"localhost\""
param *.manager.port 9999
param *.manager.autoShutdown true
param *.manager.launchConfig "xmldoc(\"Solutions.launchd.xml\")"
param *.rsu[0].mobility.x 250
param *.rsu[0].mobility.y 100
param *.rsu[0].mobility.z 0
param *.rsu[1].mobility.x 750
param *.rsu[1].mobility.y 100
param *.rsu[1].mobility.z 0
param *.rsu[2].mobility.x 1250
param *.rsu[2].mobility.y 100
param *.rsu[2].mobility.z 0
param *.rsu[3].mobility.x 1750
param *.rsu[3].mobility.y 100
param *.rsu[3].mobility.z 0
param *.rsu[4].mobility.x 2250
param *.rsu[4].mobility.y 100
param *.rsu[4].mobility.z 0
param *.rsu[*].applType "\"RSUClusterAppOriginal\""
param *.rsu[*].appl.headerLength "80 bit"
param *.rsu[*].appl.sendBeacons true
param *.rsu[*].appl.dataOnSch false
param *.rsu[*].appl.beaconInterval 0s
param *.rsu[*].appl.beaconUserPriority 7
param *.rsu[*].appl.dataUserPriority 5
param *.rsu[*].nic.phy80211p.antennaOffsetZ "0 m"
param *.connectionManager.sendDirect true
param *.connectionManager.maxInterfDist 2600m
param *.connectionManager.drawMaxIntfDist false
param *.**.nic.mac1609_4.useServiceChannel false
param *.**.nic.mac1609_4.txPower 50mW
param *.**.nic.mac1609_4.bitrate 12Mbps
param *.**.nic.phy80211p.minPowerLevel -110dBm
param *.**.nic.phy80211p.allowTxDuringRx true
param *.**.nic.phy80211p.useNoiseFloor true
param *.**.nic.phy80211p.noiseFloor -98dBm
param *.**.nic.phy80211p.decider "xmldoc(\"config.xml\")"
param *.**.nic.phy80211p.analogueModels "xmldoc(\"config.xml\")"
param *.**.nic.phy80211p.usePropagationDelay true
param *.**.nic.phy80211p.antenna "xmldoc(\"antenna.xml\", \"/root/Antenna[@id='monopole']\")"
param *.node[*].nic.phy80211p.antennaOffsetY "0 m"
param *.node[*].nic.phy80211p.antennaOffsetZ "1.895 m"
param *.node[*].applType "\"VehicleApp\""
param *.node[*].appl.headerLength "80 bit"
param *.node[*].appl.sendBeacons false
param *.node[*].appl.dataOnSch false
param *.node[*].appl.beaconInterval 1s
param *.node[*].veinsmobility.x 0
param *.node[*].veinsmobility.y 0
param *.node[*].veinsmobility.z 0
param *.node[*].veinsmobility.setHostSpeed false
param *.node[*0].veinsmobility.accidentCount 0
param *.node[*0].veinsmobility.accidentStart 73s
param *.node[*0].veinsmobility.accidentDuration 50s
param *.ES0.srv.ClockFrequency 4
param *.ES1.srv.ClockFrequency 5
param *.ES2.srv.ClockFrequency 7
param *.ES3.srv.ClockFrequency 5
param *.ES4.srv.ClockFrequency 4
param *.ES5.srv.ClockFrequency 7
param *.ES6.srv.ClockFrequency 5
param *.ES7.srv.ClockFrequency 4

scalar SolutionNetwork.node[0].appl generatedWSMs 0
scalar SolutionNetwork.node[0].appl receivedWSMs 44
scalar SolutionNetwork.node[0].appl generatedBSMs 0
scalar SolutionNetwork.node[0].appl receivedBSMs 2042
scalar SolutionNetwork.node[0].appl generatedWSAs 0
scalar SolutionNetwork.node[0].appl receivedWSAs 0
scalar SolutionNetwork.node[0].appl "finished Task" 34
scalar SolutionNetwork.node[0].appl Tasks 45
scalar SolutionNetwork.node[0].appl COMessages 80
scalar SolutionNetwork.node[0].nic.phy80211p busyTime 0.015850346666667
scalar SolutionNetwork.node[0].nic.mac1609_4 ReceivedUnicastPackets 44
scalar SolutionNetwork.node[0].nic.mac1609_4 ReceivedBroadcasts 2042
scalar SolutionNetwork.node[0].nic.mac1609_4 SentPackets 235
scalar SolutionNetwork.node[0].nic.mac1609_4 SentAcknowledgements 0
scalar SolutionNetwork.node[0].nic.mac1609_4 RetriesExceeded 0
scalar SolutionNetwork.node[0].nic.mac1609_4 SNIRLostPackets 8451
scalar SolutionNetwork.node[0].nic.mac1609_4 RXTXLostPackets 131
scalar SolutionNetwork.node[0].nic.mac1609_4 TotalLostPackets 8582
scalar SolutionNetwork.node[0].nic.mac1609_4 DroppedPacketsInMac 0
scalar SolutionNetwork.node[0].nic.mac1609_4 TooLittleTime 0
scalar SolutionNetwork.node[0].nic.mac1609_4 TimesIntoBackoff 239
scalar SolutionNetwork.node[0].nic.mac1609_4 SlotsBackoff 341
scalar SolutionNetwork.node[0].nic.mac1609_4 NumInternalContention 0
scalar SolutionNetwork.node[0].nic.mac1609_4 totalBusyTime 1.064517038382
scalar SolutionNetwork.node[0].nic.mac1609_4 retriesExceeded:count 0
attr source org_car2x_veins_modules_mac_sigRetriesExceeded
scalar SolutionNetwork.node[0].nic.mac1609_4 sentAcks:count 0
attr source org_car2x_veins_modules_mac_sigSentAck
scalar SolutionNetwork.node[0].nic.mac1609_4 sentPackets:count 235
attr source org_car2x_veins_modules_mac_sigSentPacket
scalar SolutionNetwork.node[0].nic.mac1609_4 collisions:count 0
attr source org_car2x_veins_modules_mac_sigCollision
scalar SolutionNetwork.node[0].nic.mac1609_4 channelBusy:timeavg 0.01419356051176
attr source org_car2x_veins_modules_mac_sigChannelBusy
scalar SolutionNetwork.node[0].veinsmobility startTime 1
scalar SolutionNetwork.node[0].veinsmobility totalTime 74
scalar SolutionNetwork.node[0].veinsmobility stopTime 76
scalar SolutionNetwork.node[0].veinsmobility minSpeed 33.3333
scalar SolutionNetwork.node[0].veinsmobility maxSpeed 33.3333
scalar SolutionNetwork.node[0].veinsmobility totalDistance 2466.6642
scalar SolutionNetwork.node[0].veinsmobility totalCO2Emission 448.17825332139
scalar SolutionNetwork.node[1].appl generatedWSMs 0
scalar SolutionNetwork.node[1].appl receivedWSMs 43
scalar SolutionNetwork.node[1].appl generatedBSMs 0
scalar SolutionNetwork.node[1].appl receivedBSMs 2015
scalar SolutionNetwork.node[1].appl generatedWSAs 0
scalar SolutionNetwork.node[1].appl receivedWSAs 0
scalar SolutionNetwork.node[1].appl "finished Task" 33
scalar SolutionNetwork.node[1].appl Tasks 45
scalar SolutionNetwork.node[1].appl COMessages 79
scalar SolutionNetwork.node[1].nic.phy80211p busyTime 0.015868480000001
scalar SolutionNetwork.node[1].nic.mac1609_4 ReceivedUnicastPackets 43
scalar SolutionNetwork.node[1].nic.mac1609_4 ReceivedBroadcasts 2015
scalar SolutionNetwork.node[1].nic.mac1609_4 SentPackets 227
scalar SolutionNetwork.node[1].nic.mac1609_4 SentAcknowledgements 0
scalar SolutionNetwork.node[1].nic.mac1609_4 RetriesExceeded 0
scalar SolutionNetwork.node[1].nic.mac1609_4 SNIRLostPackets 8396
scalar SolutionNetwork.node[1].nic.mac1609_4 RXTXLostPackets 129
scalar SolutionNetwork.node[1].nic.mac1609_4 TotalLostPackets 8525
scalar SolutionNetwork.node[1].nic.mac1609_4 DroppedPacketsInMac 0
scalar SolutionNetwork.node[1].nic.mac1609_4 TooLittleTime 0
scalar SolutionNetwork.node[1].nic.mac1609_4 TimesIntoBackoff 230
scalar SolutionNetwork.node[1].nic.mac1609_4 SlotsBackoff 338
scalar SolutionNetwork.node[1].nic.mac1609_4 NumInternalContention 0
scalar SolutionNetwork.node[1].nic.mac1609_4 totalBusyTime 1.064638853342
scalar SolutionNetwork.node[1].nic.mac1609_4 retriesExceeded:count 0
attr source org_car2x_veins_modules_mac_sigRetriesExceeded
scalar SolutionNetwork.node[1].nic.mac1609_4 sentAcks:count 0
attr source org_car2x_veins_modules_mac_sigSentAck
scalar SolutionNetwork.node[1].nic.mac1609_4 sentPackets:count 227
attr source org_car2x_veins_modules_mac_sigSentPacket
scalar SolutionNetwork.node[1].nic.mac1609_4 collisions:count 0
attr source org_car2x_veins_modules_mac_sigCollision
scalar SolutionNetwork.node[1].nic.mac1609_4 channelBusy:timeavg 0.014195184711227
attr source org_car2x_veins_modules_mac_sigChannelBusy
scalar SolutionNetwork.node[1].veinsmobility startTime 1
scalar SolutionNetwork.node[1].veinsmobility totalTime 74
scalar SolutionNetwork.node[1].veinsmobility stopTime 76
scalar SolutionNetwork.node[1].veinsmobility minSpeed 33.3333
scalar SolutionNetwork.node[1].veinsmobility maxSpeed 33.3333
scalar SolutionNetwork.node[1].veinsmobility totalDistance 2466.6642
scalar SolutionNetwork.node[1].veinsmobility totalCO2Emission 448.17825332139
scalar SolutionNetwork.node[2].appl generatedWSMs 0
scalar SolutionNetwork.node[2].appl receivedWSMs 41
scalar SolutionNetwork.node[2].appl generatedBSMs 0
scalar SolutionNetwork.node[2].appl receivedBSMs 2041
scalar SolutionNetwork.node[2].appl generatedWSAs 0
scalar SolutionNetwork.node[2].appl receivedWSAs 0
scalar SolutionNetwork.node[2].appl "finished Task" 32
scalar SolutionNetwork.node[2].appl Tasks 45
scalar SolutionNetwork.node[2].appl COMessages 77
scalar SolutionNetwork.node[2].nic.phy80211p busyTime 0.016506773333334
scalar SolutionNetwork.node[2].nic.mac1609_4 ReceivedUnicastPackets 41
scalar SolutionNetwork.node[2].nic.mac1609_4 ReceivedBroadcasts 2041
scalar SolutionNetwork.node[2].nic.mac1609_4 SentPackets 86
scalar SolutionNetwork.node[2].nic.mac1609_4 SentAcknowledgements 0
scalar SolutionNetwork.node[2].nic.mac1609_4 RetriesExceeded 0
scalar SolutionNetwork.node[2].nic.mac1609_4 SNIRLostPackets 8310
scalar SolutionNetwork.node[2].nic.mac1609_4 RXTXLostPackets 2
scalar SolutionNetwork.node[2].nic.mac1609_4 TotalLostPackets 8312
scalar SolutionNetwork.node[2].nic.mac1609_4 DroppedPacketsInMac 0
scalar SolutionNetwork.node[2].nic.mac1609_4 TooLittleTime 0
scalar SolutionNetwork.node[2].nic.mac1609_4 TimesIntoBackoff 86
scalar SolutionNetwork.node[2].nic.mac1609_4 SlotsBackoff 137
scalar SolutionNetwork.node[2].nic.mac1609_4 NumInternalContention 0
scalar SolutionNetwork.node[2].nic.mac1609_4 totalBusyTime 1.075648841585
scalar SolutionNetwork.node[2].nic.mac1609_4 retriesExceeded:count 0
attr source org_car2x_veins_modules_mac_sigRetriesExceeded
scalar SolutionNetwork.node[2].nic.mac1609_4 sentAcks:count 0
attr source org_car2x_veins_modules_mac_sigSentAck
scalar SolutionNetwork.node[2].nic.mac1609_4 sentPackets:count 86
attr source org_car2x_veins_modules_mac_sigSentPacket
scalar SolutionNetwork.node[2].nic.mac1609_4 collisions:count 0
attr source org_car2x_veins_modules_mac_sigCollision
scalar SolutionNetwork.node[2].nic.mac1609_4 channelBusy:timeavg 0.014341984554467
attr source org_car2x_veins_modules_mac_sigChannelBusy
scalar SolutionNetwork.node[2].veinsmobility startTime 3
scalar SolutionNetwork.node[2].veinsmobility totalTime 74
scalar SolutionNetwork.node[2].veinsmobility stopTime 78
scalar SolutionNetwork.node[2].veinsmobility minSpeed 33.3333
scalar SolutionNetwork.node[2].veinsmobility maxSpeed 33.3333
scalar SolutionNetwork.node[2].veinsmobility totalDistance 2466.6642
scalar SolutionNetwork.node[2].veinsmobility totalCO2Emission 448.17825332139
scalar SolutionNetwork.node[3].appl generatedWSMs 0
scalar SolutionNetwork.node[3].appl receivedWSMs 44
scalar SolutionNetwork.node[3].appl generatedBSMs 0
scalar SolutionNetwork.node[3].appl receivedBSMs 2026
scalar SolutionNetwork.node[3].appl generatedWSAs 0
scalar SolutionNetwork.node[3].appl receivedWSAs 0
scalar SolutionNetwork.node[3].appl "finished Task" 34
scalar SolutionNetwork.node[3].appl Tasks 45
scalar SolutionNetwork.node[3].appl COMessages 80
scalar SolutionNetwork.node[3].nic.phy80211p busyTime 0.016474986666668
scalar SolutionNetwork.node[3].nic.mac1609_4 ReceivedUnicastPackets 44
scalar SolutionNetwork.node[3].nic.mac1609_4 ReceivedBroadcasts 2026
scalar SolutionNetwork.node[3].nic.mac1609_4 SentPackets 101
scalar SolutionNetwork.node[3].nic.mac1609_4 SentAcknowledgements 0
scalar SolutionNetwork.node[3].nic.mac1609_4 RetriesExceeded 0
scalar SolutionNetwork.node[3].nic.mac1609_4 SNIRLostPackets 8240
scalar SolutionNetwork.node[3].nic.mac1609_4 RXTXLostPackets 5
scalar SolutionNetwork.node[3].nic.mac1609_4 TotalLostPackets 8245
scalar SolutionNetwork.node[3].nic.mac1609_4 DroppedPacketsInMac 0
scalar SolutionNetwork.node[3].nic.mac1609_4 TooLittleTime 0
scalar SolutionNetwork.node[3].nic.mac1609_4 TimesIntoBackoff 103
scalar SolutionNetwork.node[3].nic.mac1609_4 SlotsBackoff 146
scalar SolutionNetwork.node[3].nic.mac1609_4 NumInternalContention 0
scalar SolutionNetwork.node[3].nic.mac1609_4 totalBusyTime 1.075665210806
scalar SolutionNetwork.node[3].nic.mac1609_4 retriesExceeded:count 0
attr source org_car2x_veins_modules_mac_sigRetriesExceeded
scalar SolutionNetwork.node[3].nic.mac1609_4 sentAcks:count 0
attr source org_car2x_veins_modules_mac_sigSentAck
scalar SolutionNetwork.node[3].nic.mac1609_4 sentPackets:count 101
attr source org_car2x_veins_modules_mac_sigSentPacket
scalar SolutionNetwork.node[3].nic.mac1609_4 collisions:count 0
attr source org_car2x_veins_modules_mac_sigCollision
scalar SolutionNetwork.node[3].nic.mac1609_4 channelBusy:timeavg 0.014342202810747
attr source org_car2x_veins_modules_mac_sigChannelBusy
scalar SolutionNetwork.node[3].veinsmobility startTime 3
scalar SolutionNetwork.node[3].veinsmobility totalTime 74
scalar SolutionNetwork.node[3].veinsmobility stopTime 78
scalar SolutionNetwork.node[3].veinsmobility minSpeed 33.3333
scalar SolutionNetwork.node[3].veinsmobility maxSpeed 33.3333
scalar SolutionNetwork.node[3].veinsmobility totalDistance 2466.6642
scalar SolutionNetwork.node[3].veinsmobility totalCO2Emission 448.17825332139
scalar SolutionNetwork.node[4].appl generatedWSMs 0
scalar SolutionNetwork.node[4].appl receivedWSMs 45
scalar SolutionNetwork.node[4].appl generatedBSMs 0
scalar SolutionNetwork.node[4].appl receivedBSMs 2049
scalar SolutionNetwork.node[4].appl generatedWSAs 0
scalar SolutionNetwork.node[4].appl receivedWSAs 0
scalar SolutionNetwork.node[4].appl "finished Task" 34
scalar SolutionNetwork.node[4].appl Tasks 45
scalar SolutionNetwork.node[4].appl COMessages 81
scalar SolutionNetwork.node[4].nic.phy80211p busyTime 0.013988053333333
scalar SolutionNetwork.node[4].nic.mac1609_4 ReceivedUnicastPackets 45
scalar SolutionNetwork.node[4].nic.mac1609_4 ReceivedBroadcasts 2049
scalar SolutionNetwork.node[4].nic.mac1609_4 SentPackets 845
scalar SolutionNetwork.node[4].nic.mac1609_4 SentAcknowledgements 0
scalar SolutionNetwork.node[4].nic.mac1609_4 RetriesExceeded 0
scalar SolutionNetwork.node[4].nic.mac1609_4 SNIRLostPackets 7048
scalar SolutionNetwork.node[4].nic.mac1609_4 RXTXLostPackets 703
scalar SolutionNetwork.node[4].nic.mac1609_4 TotalLostPackets 7751
scalar SolutionNetwork.node[4].nic.mac1609_4 DroppedPacketsInMac 0
scalar SolutionNetwork.node[4].nic.mac1609_4 TooLittleTime 0
scalar SolutionNetwork.node[4].nic.mac1609_4 TimesIntoBackoff 856
scalar SolutionNetwork.node[4].nic.mac1609_4 SlotsBackoff 1258
scalar SolutionNetwork.node[4].nic.mac1609_4 NumInternalContention 0
scalar SolutionNetwork.node[4].nic.mac1609_4 totalBusyTime 1.08546088289
scalar SolutionNetwork.node[4].nic.mac1609_4 retriesExceeded:count 0
attr source org_car2x_veins_modules_mac_sigRetriesExceeded
scalar SolutionNetwork.node[4].nic.mac1609_4 sentAcks:count 0
attr source org_car2x_veins_modules_mac_sigSentAck
scalar SolutionNetwork.node[4].nic.mac1609_4 sentPackets:count 845
attr source org_car2x_veins_modules_mac_sigSentPacket
scalar SolutionNetwork.node[4].nic.mac1609_4 collisions:count 0
attr source org_car2x_veins_modules_mac_sigCollision
scalar SolutionNetwork.node[4].nic.mac1609_4 channelBusy:timeavg 0.014472811771867
attr source org_car2x_veins_modules_mac_sigChannelBusy
scalar SolutionNetwork.node[4].veinsmobility startTime 5
scalar SolutionNetwork.node[4].veinsmobility totalTime 74
scalar SolutionNetwork.node[4].veinsmobility stopTime 80
scalar SolutionNetwork.node[4].veinsmobility minSpeed 33.3333
scalar SolutionNetwork.node[4].veinsmobility maxSpeed 33.3333
scalar SolutionNetwork.node[4].veinsmobility totalDistance 2466.6642
scalar SolutionNetwork.node[4].veinsmobility totalCO2Emission 448.17825332139
scalar SolutionNetwork.node[5].appl generatedWSMs 0
scalar SolutionNetwork.node[5].appl receivedWSMs 43
scalar SolutionNetwork.node[5].appl generatedBSMs 0
scalar SolutionNetwork.node[5].appl receivedBSMs 2016
scalar SolutionNetwork.node[5].appl generatedWSAs 0
scalar SolutionNetwork.node[5].appl receivedWSAs 0
scalar SolutionNetwork.node[5].appl "finished Task" 33
scalar SolutionNetwork.node[5].appl Tasks 45
scalar SolutionNetwork.node[5].appl COMessages 79
scalar SolutionNetwork.node[5].nic.phy80211p busyTime 0.01396256
scalar SolutionNetwork.node[5].nic.mac1609_4 ReceivedUnicastPackets 43
scalar SolutionNetwork.node[5].nic.mac1609_4 ReceivedBroadcasts 2016
scalar SolutionNetwork.node[5].nic.mac1609_4 SentPackets 856
scalar SolutionNetwork.node[5].nic.mac1609_4 SentAcknowledgements 0
scalar SolutionNetwork.node[5].nic.mac1609_4 RetriesExceeded 0
scalar SolutionNetwork.node[5].nic.mac1609_4 SNIRLostPackets 7018
scalar SolutionNetwork.node[5].nic.mac1609_4 RXTXLostPackets 707
scalar SolutionNetwork.node[5].nic.mac1609_4 TotalLostPackets 7725
scalar SolutionNetwork.node[5].nic.mac1609_4 DroppedPacketsInMac 0
scalar SolutionNetwork.node[5].nic.mac1609_4 TooLittleTime 0
scalar SolutionNetwork.node[5].nic.mac1609_4 TimesIntoBackoff 867
scalar SolutionNetwork.node[5].nic.mac1609_4 SlotsBackoff 1285
scalar SolutionNetwork.node[5].nic.mac1609_4 NumInternalContention 0
scalar SolutionNetwork.node[5].nic.mac1609_4 totalBusyTime 1.085535577492
scalar SolutionNetwork.node[5].nic.mac1609_4 retriesExceeded:count 0
attr source org_car2x_veins_modules_mac_sigRetriesExceeded
scalar SolutionNetwork.node[5].nic.mac1609_4 sentAcks:count 0
attr source org_car2x_veins_modules_mac_sigSentAck
scalar SolutionNetwork.node[5].nic.mac1609_4 sentPackets:count 856
attr source org_car2x_veins_modules_mac_sigSentPacket
scalar SolutionNetwork.node[5].nic.mac1609_4 collisions:count 0
attr source org_car2x_veins_modules_mac_sigCollision
scalar SolutionNetwork.node[5].nic.mac1609_4 channelBusy:timeavg 0.014473807699893
attr source org_car2x_veins_modules_mac_sigChannelBusy
scalar SolutionNetwork.node[5].veinsmobility startTime 5
scalar SolutionNetwork.node[5].veinsmobility totalTime 74
scalar SolutionNetwork.node[5].veinsmobility stopTime 80
scalar SolutionNetwork.node[5].veinsmobility minSpeed 33.3333
scalar SolutionNetwork.node[5].veinsmobility maxSpeed 33.3333
scalar SolutionNetwork.node[5].veinsmobility totalDistance 2466.6642
scalar SolutionNetwork.node[5].veinsmobility totalCO2Emission 448.17825332139
scalar SolutionNetwork.node[6].appl generatedWSMs 0
scalar SolutionNetwork.node[6].appl receivedWSMs 44
scalar SolutionNetwork.node[6].appl generatedBSMs 0
scalar SolutionNetwork.node[6].appl receivedBSMs 2062
scalar SolutionNetwork.node[6].appl generatedWSAs 0
scalar SolutionNetwork.node[6].appl receivedWSAs 0
scalar SolutionNetwork.node[6].appl "finished Task" 34
scalar SolutionNetwork.node[6].appl Tasks 45
scalar SolutionNetwork.node[6].appl COMessages 80
scalar SolutionNetwork.node[6].nic.phy80211p busyTime 0.016238293333334
scalar SolutionNetwork.node[6].nic.mac1609_4 ReceivedUnicastPackets 44
scalar SolutionNetwork.node[6].nic.mac1609_4 ReceivedBroadcasts 2062
scalar SolutionNetwork.node[6].nic.mac1609_4 SentPackets 228
scalar SolutionNetwork.node[6].nic.mac1609_4 SentAcknowledgements 0
scalar SolutionNetwork.node[6].nic.mac1609_4 RetriesExceeded 0
scalar SolutionNetwork.node[6].nic.mac1609_4 SNIRLostPackets 7950
scalar SolutionNetwork.node[6].nic.mac1609_4 RXTXLostPackets 131
scalar SolutionNetwork.node[6].nic.mac1609_4 TotalLostPackets 8081
scalar SolutionNetwork.node[6].nic.mac1609_4 DroppedPacketsInMac 0
scalar SolutionNetwork.node[6].nic.mac1609_4 TooLittleTime 0
scalar SolutionNetwork.node[6].nic.mac1609_4 TimesIntoBackoff 231
scalar SolutionNetwork.node[6].nic.mac1609_4 SlotsBackoff 359
scalar SolutionNetwork.node[6].nic.mac1609_4 NumInternalContention 0
scalar SolutionNetwork.node[6].nic.mac1609_4 totalBusyTime 1.091896254664
scalar SolutionNetwork.node[6].nic.mac1609_4 retriesExceeded:count 0
attr source org_car2x_veins_modules_mac_sigRetriesExceeded
scalar SolutionNetwork.node[6].nic.mac1609_4 sentAcks:count 0
attr source org_car2x_veins_modules_mac_sigSentAck
scalar SolutionNetwork.node[6].nic.mac1609_4 sentPackets:count 228
attr source org_car2x_veins_modules_mac_sigSentPacket
scalar SolutionNetwork.node[6].nic.mac1609_4 collisions:count 0
attr source org_car2x_veins_modules_mac_sigCollision
scalar SolutionNetwork.node[6].nic.mac1609_4 channelBusy:timeavg 0.014558616728853
attr source org_car2x_veins_modules_mac_sigChannelBusy
scalar SolutionNetwork.node[6].veinsmobility startTime 7
scalar SolutionNetwork.node[6].veinsmobility totalTime 74
scalar SolutionNetwork.node[6].veinsmobility stopTime 82
scalar SolutionNetwork.node[6].veinsmobility minSpeed 33.3333
scalar SolutionNetwork.node[6].veinsmobility maxSpeed 33.3333
scalar SolutionNetwork.node[6].veinsmobility totalDistance 2466.6642
scalar SolutionNetwork.node[6].veinsmobility totalCO2Emission 448.17825332139
scalar SolutionNetwork.node[7].appl generatedWSMs 0
scalar SolutionNetwork.node[7].appl receivedWSMs 44
scalar SolutionNetwork.node[7].appl generatedBSMs 0
scalar SolutionNetwork.node[7].appl receivedBSMs 2010
scalar SolutionNetwork.node[7].appl generatedWSAs 0
scalar SolutionNetwork.node[7].appl receivedWSAs 0
scalar SolutionNetwork.node[7].appl "finished Task" 34
scalar SolutionNetwork.node[7].appl Tasks 45
scalar SolutionNetwork.node[7].appl COMessages 80
scalar SolutionNetwork.node[7].nic.phy80211p busyTime 0.016242880000001
scalar SolutionNetwork.node[7].nic.mac1609_4 ReceivedUnicastPackets 44
scalar SolutionNetwork.node[7].nic.mac1609_4 ReceivedBroadcasts 2010
scalar SolutionNetwork.node[7].nic.mac1609_4 SentPackets 227
scalar SolutionNetwork.node[7].nic.mac1609_4 SentAcknowledgements 0
scalar SolutionNetwork.node[7].nic.mac1609_4 RetriesExceeded 0
scalar SolutionNetwork.node[7].nic.mac1609_4 SNIRLostPackets 7953
scalar SolutionNetwork.node[7].nic.mac1609_4 RXTXLostPackets 129
scalar SolutionNetwork.node[7].nic.mac1609_4 TotalLostPackets 8082
scalar SolutionNetwork.node[7].nic.mac1609_4 DroppedPacketsInMac 0
scalar SolutionNetwork.node[7].nic.mac1609_4 TooLittleTime 0
scalar SolutionNetwork.node[7].nic.mac1609_4 TimesIntoBackoff 228
scalar SolutionNetwork.node[7].nic.mac1609_4 SlotsBackoff 340
scalar SolutionNetwork.node[7].nic.mac1609_4 NumInternalContention 0
scalar SolutionNetwork.node[7].nic.mac1609_4 totalBusyTime 1.091830069861
scalar SolutionNetwork.node[7].nic.mac1609_4 retriesExceeded:count 0
attr source org_car2x_veins_modules_mac_sigRetriesExceeded
scalar SolutionNetwork.node[7].nic.mac1609_4 sentAcks:count 0
attr source org_car2x_veins_modules_mac_sigSentAck
scalar SolutionNetwork.node[7].nic.mac1609_4 sentPackets:count 227
attr source org_car2x_veins_modules_mac_sigSentPacket
scalar SolutionNetwork.node[7].nic.mac1609_4 collisions:count 0
attr source org_car2x_veins_modules_mac_sigCollision
scalar SolutionNetwork.node[7].nic.mac1609_4 channelBusy:timeavg 0.014557734264813
attr source org_car2x_veins_modules_mac_sigChannelBusy
scalar SolutionNetwork.node[7].veinsmobility startTime 7
scalar SolutionNetwork.node[7].veinsmobility totalTime 74
scalar SolutionNetwork.node[7].veinsmobility stopTime 82
scalar SolutionNetwork.node[7].veinsmobility minSpeed 33.3333
scalar SolutionNetwork.node[7].veinsmobility maxSpeed 33.3333
scalar SolutionNetwork.node[7].veinsmobility totalDistance 2466.6642
scalar SolutionNetwork.node[7].veinsmobility totalCO2Emission 448.17825332139
scalar SolutionNetwork.node[8].appl generatedWSMs 0
scalar SolutionNetwork.node[8].appl receivedWSMs 44
scalar SolutionNetwork.node[8].appl generatedBSMs 0
scalar SolutionNetwork.node[8].appl receivedBSMs 2057
scalar SolutionNetwork.node[8].appl generatedWSAs 0
scalar SolutionNetwork.node[8].appl receivedWSAs 0
scalar SolutionNetwork.node[8].appl "finished Task" 35
scalar SolutionNetwork.node[8].appl Tasks 45
scalar SolutionNetwork.node[8].appl COMessages 80
scalar SolutionNetwork.node[8].nic.phy80211p busyTime 0.016786026666668
scalar SolutionNetwork.node[8].nic.mac1609_4 ReceivedUnicastPackets 44
scalar SolutionNetwork.node[8].nic.mac1609_4 ReceivedBroadcasts 2057
scalar SolutionNetwork.node[8].nic.mac1609_4 SentPackets 94
scalar SolutionNetwork.node[8].nic.mac1609_4 SentAcknowledgements 0
scalar SolutionNetwork.node[8].nic.mac1609_4 RetriesExceeded 0
scalar SolutionNetwork.node[8].nic.mac1609_4 SNIRLostPackets 8275
scalar SolutionNetwork.node[8].nic.mac1609_4 RXTXLostPackets 2
scalar SolutionNetwork.node[8].nic.mac1609_4 TotalLostPackets 8277
scalar SolutionNetwork.node[8].nic.mac1609_4 DroppedPacketsInMac 0
scalar SolutionNetwork.node[8].nic.mac1609_4 TooLittleTime 0
scalar SolutionNetwork.node[8].nic.mac1609_4 TimesIntoBackoff 94
scalar SolutionNetwork.node[8].nic.mac1609_4 SlotsBackoff 154
scalar SolutionNetwork.node[8].nic.mac1609_4 NumInternalContention 0
scalar SolutionNetwork.node[8].nic.mac1609_4 totalBusyTime 1.097010091305
scalar SolutionNetwork.node[8].nic.mac1609_4 retriesExceeded:count 0
attr source org_car2x_veins_modules_mac_sigRetriesExceeded
scalar SolutionNetwork.node[8].nic.mac1609_4 sentAcks:count 0
attr source org_car2x_veins_modules_mac_sigSentAck
scalar SolutionNetwork.node[8].nic.mac1609_4 sentPackets:count 94
attr source org_car2x_veins_modules_mac_sigSentPacket
scalar SolutionNetwork.node[8].nic.mac1609_4 collisions:count 0
attr source org_car2x_veins_modules_mac_sigCollision
scalar SolutionNetwork.node[8].nic.mac1609_4 channelBusy:timeavg 0.0146268012174
attr source org_car2x_veins_modules_mac_sigChannelBusy
scalar SolutionNetwork.node[8].veinsmobility startTime 9
scalar SolutionNetwork.node[8].veinsmobility totalTime 74
scalar SolutionNetwork.node[8].veinsmobility stopTime 84
scalar SolutionNetwork.node[8].veinsmobility minSpeed 33.3333
scalar SolutionNetwork.node[8].veinsmobility maxSpeed 33.3333
scalar SolutionNetwork.node[8].veinsmobility totalDistance 2466.6642
scalar SolutionNetwork.node[8].veinsmobility totalCO2Emission 448.17825332139
scalar SolutionNetwork.node[9].appl generatedWSMs 0
scalar SolutionNetwork.node[9].appl receivedWSMs 39
scalar SolutionNetwork.node[9].appl generatedBSMs 0
scalar SolutionNetwork.node[9].appl receivedBSMs 2011
scalar SolutionNetwork.node[9].appl generatedWSAs 0
scalar SolutionNetwork.node[9].appl receivedWSAs 0
scalar SolutionNetwork.node[9].appl "finished Task" 30
scalar SolutionNetwork.node[9].appl Tasks 45
scalar SolutionNetwork.node[9].appl COMessages 75
scalar SolutionNetwork.node[9].nic.phy80211p busyTime 0.016777920000001
scalar SolutionNetwork.node[9].nic.mac1609_4 ReceivedUnicastPackets 39
scalar SolutionNetwork.node[9].nic.mac1609_4 ReceivedBroadcasts 2011
scalar SolutionNetwork.node[9].nic.mac1609_4 SentPackets 96
scalar SolutionNetwork.node[9].nic.mac1609_4 SentAcknowledgements 0
scalar SolutionNetwork.node[9].nic.mac1609_4 RetriesExceeded 0
scalar SolutionNetwork.node[9].nic.mac1609_4 SNIRLostPackets 8293
scalar SolutionNetwork.node[9].nic.mac1609_4 RXTXLostPackets 4
scalar SolutionNetwork.node[9].nic.mac1609_4 TotalLostPackets 8297
scalar SolutionNetwork.node[9].nic.mac1609_4 DroppedPacketsInMac 0
scalar SolutionNetwork.node[9].nic.mac1609_4 TooLittleTime 0
scalar SolutionNetwork.node[9].nic.mac1609_4 TimesIntoBackoff 96
scalar SolutionNetwork.node[9].nic.mac1609_4 SlotsBackoff 151
scalar SolutionNetwork.node[9].nic.mac1609_4 NumInternalContention 0
scalar SolutionNetwork.node[9].nic.mac1609_4 totalBusyTime 1.097011044875
scalar SolutionNetwork.node[9].nic.mac1609_4 retriesExceeded:count 0
attr source org_car2x_veins_modules_mac_sigRetriesExceeded
scalar SolutionNetwork.node[9].nic.mac1609_4 sentAcks:count 0
attr source org_car2x_veins_modules_mac_sigSentAck
scalar SolutionNetwork.node[9].nic.mac1609_4 sentPackets:count 96
attr source org_car2x_veins_modules_mac_sigSentPacket
scalar SolutionNetwork.node[9].nic.mac1609_4 collisions:count 0
attr source org_car2x_veins_modules_mac_sigCollision
scalar SolutionNetwork.node[9].nic.mac1609_4 channelBusy:timeavg 0.014626813931667
attr source org_car2x_veins_modules_mac_sigChannelBusy
scalar SolutionNetwork.node[9].veinsmobility startTime 9
scalar SolutionNetwork.node[9].veinsmobility totalTime 74
scalar SolutionNetwork.node[9].veinsmobility stopTime 84
scalar SolutionNetwork.node[9].veinsmobility minSpeed 33.3333
scalar SolutionNetwork.node[9].veinsmobility maxSpeed 33.3333
scalar SolutionNetwork.node[9].veinsmobility totalDistance 2466.6642
scalar SolutionNetwork.node[9].veinsmobility totalCO2Emission 448.17825332139
scalar SolutionNetwork.node[10].appl generatedWSMs 0
scalar SolutionNetwork.node[10].appl receivedWSMs 41
scalar SolutionNetwork.node[10].appl generatedBSMs 0
scalar SolutionNetwork.node[10].appl receivedBSMs 2016
scalar SolutionNetwork.node[10].appl generatedWSAs 0
scalar SolutionNetwork.node[10].appl receivedWSAs 0
scalar SolutionNetwork.node[10].appl "finished Task" 31
scalar SolutionNetwork.node[10].appl Tasks 45
scalar SolutionNetwork.node[10].appl COMessages 77
scalar SolutionNetwork.node[10].nic.phy80211p busyTime 0.016786880000001
scalar SolutionNetwork.node[10].nic.mac1609_4 ReceivedUnicastPackets 41
scalar SolutionNetwork.node[10].nic.mac1609_4 ReceivedBroadcasts 2016
scalar SolutionNetwork.node[10].nic.mac1609_4 SentPackets 107
scalar SolutionNetwork.node[10].nic.mac1609_4 SentAcknowledgements 0
scalar SolutionNetwork.node[10].nic.mac1609_4 RetriesExceeded 0
scalar SolutionNetwork.node[10].nic.mac1609_4 SNIRLostPackets 8325
scalar SolutionNetwork.node[10].nic.mac1609_4 RXTXLostPackets 4
scalar SolutionNetwork.node[10].nic.mac1609_4 TotalLostPackets 8329
scalar SolutionNetwork.node[10].nic.mac1609_4 DroppedPacketsInMac 0
scalar SolutionNetwork.node[10].nic.mac1609_4 TooLittleTime 0
scalar SolutionNetwork.node[10].nic.mac1609_4 TimesIntoBackoff 108
scalar SolutionNetwork.node[10].nic.mac1609_4 SlotsBackoff 152
scalar SolutionNetwork.node[10].nic.mac1609_4 NumInternalContention 0
scalar SolutionNetwork.node[10].nic.mac1609_4 totalBusyTime 1.099395358499
scalar SolutionNetwork.node[10].nic.mac1609_4 retriesExceeded:count 0
attr source org_car2x_veins_modules_mac_sigRetriesExceeded
scalar SolutionNetwork.node[10].nic.mac1609_4 sentAcks:count 0
attr source org_car2x_veins_modules_mac_sigSentAck
scalar SolutionNetwork.node[10].nic.mac1609_4 sentPackets:count 107
attr source org_car2x_veins_modules_mac_sigSentPacket
scalar SolutionNetwork.node[10].nic.mac1609_4 collisions:count 0
attr source org_car2x_veins_modules_mac_sigCollision
scalar SolutionNetwork.node[10].nic.mac1609_4 channelBusy:timeavg 0.014658604779987
attr source org_car2x_veins_modules_mac_sigChannelBusy
scalar SolutionNetwork.node[10].veinsmobility startTime 11
scalar SolutionNetwork.node[10].veinsmobility totalTime 74
scalar SolutionNetwork.node[10].veinsmobility stopTime 86
scalar SolutionNetwork.node[10].veinsmobility minSpeed 33.3333
scalar SolutionNetwork.node[10].veinsmobility maxSpeed 33.3333
scalar SolutionNetwork.node[10].veinsmobility totalDistance 2466.6642
scalar SolutionNetwork.node[10].veinsmobility totalCO2Emission 448.17825332139
scalar SolutionNetwork.node[11].appl generatedWSMs 0
scalar SolutionNetwork.node[11].appl receivedWSMs 43
scalar SolutionNetwork.node[11].appl generatedBSMs 0
scalar SolutionNetwork.node[11].appl receivedBSMs 2061
scalar SolutionNetwork.node[11].appl generatedWSAs 0
scalar SolutionNetwork.node[11].appl receivedWSAs 0
scalar SolutionNetwork.node[11].appl "finished Task" 34
scalar SolutionNetwork.node[11].appl Tasks 45
scalar SolutionNetwork.node[11].appl COMessages 79
scalar SolutionNetwork.node[11].nic.phy80211p busyTime 0.016776960000001
scalar SolutionNetwork.node[11].nic.mac1609_4 ReceivedUnicastPackets 43
scalar SolutionNetwork.node[11].nic.mac1609_4 ReceivedBroadcasts 2061
scalar SolutionNetwork.node[11].nic.mac1609_4 SentPackets 109
scalar SolutionNetwork.node[11].nic.mac1609_4 SentAcknowledgements 0
scalar SolutionNetwork.node[11].nic.mac1609_4 RetriesExceeded 0
scalar SolutionNetwork.node[11].nic.mac1609_4 SNIRLostPackets 8301
scalar SolutionNetwork.node[11].nic.mac1609_4 RXTXLostPackets 7
scalar SolutionNetwork.node[11].nic.mac1609_4 TotalLostPackets 8308
scalar SolutionNetwork.node[11].nic.mac1609_4 DroppedPacketsInMac 0
scalar SolutionNetwork.node[11].nic.mac1609_4 TooLittleTime 0
scalar SolutionNetwork.node[11].nic.mac1609_4 TimesIntoBackoff 110
scalar SolutionNetwork.node[11].nic.mac1609_4 SlotsBackoff 177
scalar SolutionNetwork.node[11].nic.mac1609_4 NumInternalContention 0
scalar SolutionNetwork.node[11].nic.mac1609_4 totalBusyTime 1.099397604921
scalar SolutionNetwork.node[11].nic.mac1609_4 retriesExceeded:count 0
attr source org_car2x_veins_modules_mac_sigRetriesExceeded
scalar SolutionNetwork.node[11].nic.mac1609_4 sentAcks:count 0
attr source org_car2x_veins_modules_mac_sigSentAck
scalar SolutionNetwork.node[11].nic.mac1609_4 sentPackets:count 109
attr source org_car2x_veins_modules_mac_sigSentPacket
scalar SolutionNetwork.node[11].nic.mac1609_4 collisions:count 0
attr source org_car2x_veins_modules_mac_sigCollision
scalar SolutionNetwork.node[11].nic.mac1609_4 channelBusy:timeavg 0.01465863473228
attr source org_car2x_veins_modules_mac_sigChannelBusy
scalar SolutionNetwork.node[11].veinsmobility startTime 11
scalar SolutionNetwork.node[11].veinsmobility totalTime 74
scalar SolutionNetwork.node[11].veinsmobility stopTime 86
scalar SolutionNetwork.node[11].veinsmobility minSpeed 33.33
scalar SolutionNetwork.node[11].veinsmobility maxSpeed 33.33
scalar SolutionNetwork.node[11].veinsmobility totalDistance 2466.42
scalar SolutionNetwork.node[11].veinsmobility totalCO2Emission 448.0924595567
scalar SolutionNetwork.node[12].appl generatedWSMs 0
scalar SolutionNetwork.node[12].appl receivedWSMs 46
scalar SolutionNetwork.node[12].appl generatedBSMs 0
scalar SolutionNetwork.node[12].appl receivedBSMs 2016
scalar SolutionNetwork.node[12].appl generatedWSAs 0
scalar SolutionNetwork.node[12].appl receivedWSAs 0
scalar SolutionNetwork.node[12].appl "finished Task" 37
scalar SolutionNetwork.node[12].appl Tasks 45
scalar SolutionNetwork.node[12].appl COMessages 82
scalar SolutionNetwork.node[12].nic.phy80211p busyTime 0.016800640000001
scalar SolutionNetwork.node[12].nic.mac1609_4 ReceivedUnicastPackets 46
scalar SolutionNetwork.node[12].nic.mac1609_4 ReceivedBroadcasts 2016
scalar SolutionNetwork.node[12].nic.mac1609_4 SentPackets 111
scalar SolutionNetwork.node[12].nic.mac1609_4 SentAcknowledgements 0
scalar SolutionNetwork.node[12].nic.mac1609_4 RetriesExceeded 0
scalar SolutionNetwork.node[12].nic.mac1609_4 SNIRLostPackets 8373
scalar SolutionNetwork.node[12].nic.mac1609_4 RXTXLostPackets 2
scalar SolutionNetwork.node[12].nic.mac1609_4 TotalLostPackets 8375
scalar SolutionNetwork.node[12].nic.mac1609_4 DroppedPacketsInMac 0
scalar SolutionNetwork.node[12].nic.mac1609_4 TooLittleTime 0
scalar SolutionNetwork.node[12].nic.mac1609_4 TimesIntoBackoff 112
scalar SolutionNetwork.node[12].nic.mac1609_4 SlotsBackoff 158
scalar SolutionNetwork.node[12].nic.mac1609_4 NumInternalContention 0
scalar SolutionNetwork.node[12].nic.mac1609_4 totalBusyTime 1.100903274481
scalar SolutionNetwork.node[12].nic.mac1609_4 retriesExceeded:count 0
attr source org_car2x_veins_modules_mac_sigRetriesExceeded
scalar SolutionNetwork.node[12].nic.mac1609_4 sentAcks:count 0
attr source org_car2x_veins_modules_mac_sigSentAck
scalar SolutionNetwork.node[12].nic.mac1609_4 sentPackets:count 111
attr source org_car2x_veins_modules_mac_sigSentPacket
scalar SolutionNetwork.node[12].nic.mac1609_4 collisions:count 0
attr source org_car2x_veins_modules_mac_sigCollision
scalar SolutionNetwork.node[12].nic.mac1609_4 channelBusy:timeavg 0.014678710326414
attr source org_car2x_veins_modules_mac_sigChannelBusy
scalar SolutionNetwork.node[12].veinsmobility startTime 13
scalar SolutionNetwork.node[12].veinsmobility totalTime 74
scalar SolutionNetwork.node[12].veinsmobility stopTime 88
scalar SolutionNetwork.node[12].veinsmobility minSpeed 33.3333
scalar SolutionNetwork.node[12].veinsmobility maxSpeed 33.3333
scalar SolutionNetwork.node[12].veinsmobility totalDistance 2466.6642
scalar SolutionNetwork.node[12].veinsmobility totalCO2Emission 448.17825332139
scalar SolutionNetwork.node[13].appl generatedWSMs 0
scalar SolutionNetwork.node[13].appl receivedWSMs 40
scalar SolutionNetwork.node[13].appl generatedBSMs 0
scalar SolutionNetwork.node[13].appl receivedBSMs 2047
scalar SolutionNetwork.node[13].appl generatedWSAs 0
scalar SolutionNetwork.node[13].appl receivedWSAs 0
scalar SolutionNetwork.node[13].appl "finished Task" 31
scalar SolutionNetwork.node[13].appl Tasks 45
scalar SolutionNetwork.node[13].appl COMessages 76
scalar SolutionNetwork.node[13].nic.phy80211p busyTime 0.016838720000001
scalar SolutionNetwork.node[13].nic.mac1609_4 ReceivedUnicastPackets 40
scalar SolutionNetwork.node[13].nic.mac1609_4 ReceivedBroadcasts 2047
scalar SolutionNetwork.node[13].nic.mac1609_4 SentPackets 91
scalar SolutionNetwork.node[13].nic.mac1609_4 SentAcknowledgements 0
scalar SolutionNetwork.node[13].nic.mac1609_4 RetriesExceeded 0
scalar SolutionNetwork.node[13].nic.mac1609_4 SNIRLostPackets 8269
scalar SolutionNetwork.node[13].nic.mac1609_4 RXTXLostPackets 1
scalar SolutionNetwork.node[13].nic.mac1609_4 TotalLostPackets 8270
scalar SolutionNetwork.node[13].nic.mac1609_4 DroppedPacketsInMac 0
scalar SolutionNetwork.node[13].nic.mac1609_4 TooLittleTime 0
scalar SolutionNetwork.node[13].nic.mac1609_4 TimesIntoBackoff 93
scalar SolutionNetwork.node[13].nic.mac1609_4 SlotsBackoff 146
scalar SolutionNetwork.node[13].nic.mac1609_4 NumInternalContention 0
scalar SolutionNetwork.node[13].nic.mac1609_4 totalBusyTime 1.100883433722
scalar SolutionNetwork.node[13].nic.mac1609_4 retriesExceeded:count 0
attr source org_car2x_veins_modules_mac_sigRetriesExceeded
scalar SolutionNetwork.node[13].nic.mac1609_4 sentAcks:count 0
attr source org_car2x_veins_modules_mac_sigSentAck
scalar SolutionNetwork.node[13].nic.mac1609_4 sentPackets:count 91
attr source org_car2x_veins_modules_mac_sigSentPacket
scalar SolutionNetwork.node[13].nic.mac1609_4 collisions:count 0
attr source org_car2x_veins_modules_mac_sigCollision
scalar SolutionNetwork.node[13].nic.mac1609_4 channelBusy:timeavg 0.01467844578296
attr source org_car2x_veins_modules_mac_sigChannelBusy
scalar SolutionNetwork.node[13].veinsmobility startTime 13
scalar SolutionNetwork.node[13].veinsmobility totalTime 74
scalar SolutionNetwork.node[13].veinsmobility stopTime 88
scalar SolutionNetwork.node[13].veinsmobility minSpeed 33.3333
scalar SolutionNetwork.node[13].veinsmobility maxSpeed 33.3333
scalar SolutionNetwork.node[13].veinsmobility totalDistance 2466.6642
scalar SolutionNetwork.node[13].veinsmobility totalCO2Emission 448.17825332139
scalar SolutionNetwork.node[14].appl generatedWSMs 0
scalar SolutionNetwork.node[14].appl receivedWSMs 45
scalar SolutionNetwork.node[14].appl generatedBSMs 0
scalar SolutionNetwork.node[14].appl receivedBSMs 2015
scalar SolutionNetwork.node[14].appl generatedWSAs 0
scalar SolutionNetwork.node[14].appl receivedWSAs 0
scalar SolutionNetwork.node[14].appl "finished Task" 35
scalar SolutionNetwork.node[14].appl Tasks 45
scalar SolutionNetwork.node[14].appl COMessages 81
scalar SolutionNetwork.node[14].nic.phy80211p busyTime 0.016809600000001
scalar SolutionNetwork.node[14].nic.mac1609_4 ReceivedUnicastPackets 45
scalar SolutionNetwork.node[14].nic.mac1609_4 ReceivedBroadcasts 2015
scalar SolutionNetwork.node[14].nic.mac1609_4 SentPackets 98
scalar SolutionNetwork.node[14].nic.mac1609_4 SentAcknowledgements 0
scalar SolutionNetwork.node[14].nic.mac1609_4 RetriesExceeded 0
scalar SolutionNetwork.node[14].nic.mac1609_4 SNIRLostPackets 8459
scalar SolutionNetwork.node[14].nic.mac1609_4 RXTXLostPackets 6
scalar SolutionNetwork.node[14].nic.mac1609_4 TotalLostPackets 8465
scalar SolutionNetwork.node[14].nic.mac1609_4 DroppedPacketsInMac 0
scalar SolutionNetwork.node[14].nic.mac1609_4 TooLittleTime 0
scalar SolutionNetwork.node[14].nic.mac1609_4 TimesIntoBackoff 102
scalar SolutionNetwork.node[14].nic.mac1609_4 SlotsBackoff 134
scalar SolutionNetwork.node[14].nic.mac1609_4 NumInternalContention 0
scalar SolutionNetwork.node[14].nic.mac1609_4 totalBusyTime 1.100338269876
scalar SolutionNetwork.node[14].nic.mac1609_4 retriesExceeded:count 0
attr source org_car2x_veins_modules_mac_sigRetriesExceeded
scalar SolutionNetwork.node[14].nic.mac1609_4 sentAcks:count 0
attr source org_car2x_veins_modules_mac_sigSentAck
scalar SolutionNetwork.node[14].nic.mac1609_4 sentPackets:count 98
attr source org_car2x_veins_modules_mac_sigSentPacket
scalar SolutionNetwork.node[14].nic.mac1609_4 collisions:count 0
attr source org_car2x_veins_modules_mac_sigCollision
scalar SolutionNetwork.node[14].nic.mac1609_4 channelBusy:timeavg 0.01467117693168
attr source org_car2x_veins_modules_mac_sigChannelBusy
scalar SolutionNetwork.node[14].veinsmobility startTime 15
scalar SolutionNetwork.node[14].veinsmobility totalTime 74
scalar SolutionNetwork.node[14].veinsmobility stopTime 90
scalar SolutionNetwork.node[14].veinsmobility minSpeed 33.3333
scalar SolutionNetwork.node[14].veinsmobility maxSpeed 33.3333
scalar SolutionNetwork.node[14].veinsmobility totalDistance 2466.6642
scalar SolutionNetwork.node[14].veinsmobility totalCO2Emission 448.17825332139
scalar SolutionNetwork.node[15].appl generatedWSMs 0
scalar SolutionNetwork.node[15].appl receivedWSMs 46
scalar SolutionNetwork.node[15].appl generatedBSMs 0
scalar SolutionNetwork.node[15].appl receivedBSMs 2070
scalar SolutionNetwork.node[15].appl generatedWSAs 0
scalar SolutionNetwork.node[15].appl receivedWSAs 0
scalar SolutionNetwork.node[15].appl "finished Task" 37
scalar SolutionNetwork.node[15].appl Tasks 45
scalar SolutionNetwork.node[15].appl COMessages 82
scalar SolutionNetwork.node[15].nic.phy80211p busyTime 0.016824106666668
scalar SolutionNetwork.node[15].nic.mac1609_4 ReceivedUnicastPackets 46
scalar SolutionNetwork.node[15].nic.mac1609_4 ReceivedBroadcasts 2070
scalar SolutionNetwork.node[15].nic.mac1609_4 SentPackets 95
scalar SolutionNetwork.node[15].nic.mac1609_4 SentAcknowledgements 0
scalar SolutionNetwork.node[15].nic.mac1609_4 RetriesExceeded 0
scalar SolutionNetwork.node[15].nic.mac1609_4 SNIRLostPackets 8318
scalar SolutionNetwork.node[15].nic.mac1609_4 RXTXLostPackets 1
scalar SolutionNetwork.node[15].nic.mac1609_4 TotalLostPackets 8319
scalar SolutionNetwork.node[15].nic.mac1609_4 DroppedPacketsInMac 0
scalar SolutionNetwork.node[15].nic.mac1609_4 TooLittleTime 0
scalar SolutionNetwork.node[15].nic.mac1609_4 TimesIntoBackoff 95
scalar SolutionNetwork.node[15].nic.mac1609_4 SlotsBackoff 140
scalar SolutionNetwork.node[15].nic.mac1609_4 NumInternalContention 0
scalar SolutionNetwork.node[15].nic.mac1609_4 totalBusyTime 1.100335400123
scalar SolutionNetwork.node[15].nic.mac1609_4 retriesExceeded:count 0
attr source org_car2x_veins_modules_mac_sigRetriesExceeded
scalar SolutionNetwork.node[15].nic.mac1609_4 sentAcks:count 0
attr source org_car2x_veins_modules_mac_sigSentAck
scalar SolutionNetwork.node[15].nic.mac1609_4 sentPackets:count 95
attr source org_car2x_veins_modules_mac_sigSentPacket
scalar SolutionNetwork.node[15].nic.mac1609_4 collisions:count 0
attr source org_car2x_veins_modules_mac_sigCollision
scalar SolutionNetwork.node[15].nic.mac1609_4 channelBusy:timeavg 0.014671138668307
attr source org_car2x_veins_modules_mac_sigChannelBusy
scalar SolutionNetwork.node[15].veinsmobility startTime 15
scalar SolutionNetwork.node[15].veinsmobility totalTime 74
scalar SolutionNetwork.node[15].veinsmobility stopTime 90
scalar SolutionNetwork.node[15].veinsmobility minSpeed 33.33
scalar SolutionNetwork.node[15].veinsmobility maxSpeed 33.33
scalar SolutionNetwork.node[15].veinsmobility totalDistance 2466.42
scalar SolutionNetwork.node[15].veinsmobility totalCO2Emission 448.0924595567
scalar SolutionNetwork.node[16].appl generatedWSMs 0
scalar SolutionNetwork.node[16].appl receivedWSMs 44
scalar SolutionNetwork.node[16].appl generatedBSMs 0
scalar SolutionNetwork.node[16].appl receivedBSMs 2014
scalar SolutionNetwork.node[16].appl generatedWSAs 0
scalar SolutionNetwork.node[16].appl receivedWSAs 0
scalar SolutionNetwork.node[16].appl "finished Task" 35
scalar SolutionNetwork.node[16].appl Tasks 45
scalar SolutionNetwork.node[16].appl COMessages 80
scalar SolutionNetwork.node[16].nic.phy80211p busyTime 0.016752533333335
scalar SolutionNetwork.node[16].nic.mac1609_4 ReceivedUnicastPackets 44
scalar SolutionNetwork.node[16].nic.mac1609_4 ReceivedBroadcasts 2014
scalar SolutionNetwork.node[16].nic.mac1609_4 SentPackets 107
scalar SolutionNetwork.node[16].nic.mac1609_4 SentAcknowledgements 0
scalar SolutionNetwork.node[16].nic.mac1609_4 RetriesExceeded 0
scalar SolutionNetwork.node[16].nic.mac1609_4 SNIRLostPackets 8449
scalar SolutionNetwork.node[16].nic.mac1609_4 RXTXLostPackets 5
scalar SolutionNetwork.node[16].nic.mac1609_4 TotalLostPackets 8454
scalar SolutionNetwork.node[16].nic.mac1609_4 DroppedPacketsInMac 0
scalar SolutionNetwork.node[16].nic.mac1609_4 TooLittleTime 0
scalar SolutionNetwork.node[16].nic.mac1609_4 TimesIntoBackoff 110
scalar SolutionNetwork.node[16].nic.mac1609_4 SlotsBackoff 172
scalar SolutionNetwork.node[16].nic.mac1609_4 NumInternalContention 0
scalar SolutionNetwork.node[16].nic.mac1609_4 totalBusyTime 1.097363309423
scalar SolutionNetwork.node[16].nic.mac1609_4 retriesExceeded:count 0
attr source org_car2x_veins_modules_mac_sigRetriesExceeded
scalar SolutionNetwork.node[16].nic.mac1609_4 sentAcks:count 0
attr source org_car2x_veins_modules_mac_sigSentAck
scalar SolutionNetwork.node[16].nic.mac1609_4 sentPackets:count 107
attr source org_car2x_veins_modules_mac_sigSentPacket
scalar SolutionNetwork.node[16].nic.mac1609_4 collisions:count 0
attr source org_car2x_veins_modules_mac_sigCollision
scalar SolutionNetwork.node[16].nic.mac1609_4 channelBusy:timeavg 0.014631510792307
attr source org_car2x_veins_modules_mac_sigChannelBusy
scalar SolutionNetwork.node[16].veinsmobility startTime 17
scalar SolutionNetwork.node[16].veinsmobility totalTime 74
scalar SolutionNetwork.node[16].veinsmobility stopTime 92
scalar SolutionNetwork.node[16].veinsmobility minSpeed 33.3333
scalar SolutionNetwork.node[16].veinsmobility maxSpeed 33.3333
scalar SolutionNetwork.node[16].veinsmobility totalDistance 2466.6642
scalar SolutionNetwork.node[16].veinsmobility totalCO2Emission 448.17825332139
scalar SolutionNetwork.node[17].appl generatedWSMs 0
scalar SolutionNetwork.node[17].appl receivedWSMs 45
scalar SolutionNetwork.node[17].appl generatedBSMs 0
scalar SolutionNetwork.node[17].appl receivedBSMs 2062
scalar SolutionNetwork.node[17].appl generatedWSAs 0
scalar SolutionNetwork.node[17].appl receivedWSAs 0
scalar SolutionNetwork.node[17].appl "finished Task" 36
scalar SolutionNetwork.node[17].appl Tasks 45
scalar SolutionNetwork.node[17].appl COMessages 81
scalar SolutionNetwork.node[17].nic.phy80211p busyTime 0.016743466666668
scalar SolutionNetwork.node[17].nic.mac1609_4 ReceivedUnicastPackets 45
scalar SolutionNetwork.node[17].nic.mac1609_4 ReceivedBroadcasts 2062
scalar SolutionNetwork.node[17].nic.mac1609_4 SentPackets 114
scalar SolutionNetwork.node[17].nic.mac1609_4 SentAcknowledgements 0
scalar SolutionNetwork.node[17].nic.mac1609_4 RetriesExceeded 0
scalar SolutionNetwork.node[17].nic.mac1609_4 SNIRLostPackets 8283
scalar SolutionNetwork.node[17].nic.mac1609_4 RXTXLostPackets 3
scalar SolutionNetwork.node[17].nic.mac1609_4 TotalLostPackets 8286
scalar SolutionNetwork.node[17].nic.mac1609_4 DroppedPacketsInMac 0
scalar SolutionNetwork.node[17].nic.mac1609_4 TooLittleTime 0
scalar SolutionNetwork.node[17].nic.mac1609_4 TimesIntoBackoff 115
scalar SolutionNetwork.node[17].nic.mac1609_4 SlotsBackoff 151
scalar SolutionNetwork.node[17].nic.mac1609_4 NumInternalContention 0
scalar SolutionNetwork.node[17].nic.mac1609_4 totalBusyTime 1.097434375382
scalar SolutionNetwork.node[17].nic.mac1609_4 retriesExceeded:count 0
attr source org_car2x_veins_modules_mac_sigRetriesExceeded
scalar SolutionNetwork.node[17].nic.mac1609_4 sentAcks:count 0
attr source org_car2x_veins_modules_mac_sigSentAck
scalar SolutionNetwork.node[17].nic.mac1609_4 sentPackets:count 114
attr source org_car2x_veins_modules_mac_sigSentPacket
scalar SolutionNetwork.node[17].nic.mac1609_4 collisions:count 0
attr source org_car2x_veins_modules_mac_sigCollision
scalar SolutionNetwork.node[17].nic.mac1609_4 channelBusy:timeavg 0.014632458338427
attr source org_car2x_veins_modules_mac_sigChannelBusy
scalar SolutionNetwork.node[17].veinsmobility startTime 17
scalar SolutionNetwork.node[17].veinsmobility totalTime 74
scalar SolutionNetwork.node[17].veinsmobility stopTime 92
scalar SolutionNetwork.node[17].veinsmobility minSpeed 33.3333
scalar SolutionNetwork.node[17].veinsmobility maxSpeed 33.3333
scalar SolutionNetwork.node[17].veinsmobility totalDistance 2466.6642
scalar SolutionNetwork.node[17].veinsmobility totalCO2Emission 448.17825332139
scalar SolutionNetwork.node[18].appl generatedWSMs 0
scalar SolutionNetwork.node[18].appl receivedWSMs 38
scalar SolutionNetwork.node[18].appl generatedBSMs 0
scalar SolutionNetwork.node[18].appl receivedBSMs 2002
scalar SolutionNetwork.node[18].appl generatedWSAs 0
scalar SolutionNetwork.node[18].appl receivedWSAs 0
scalar SolutionNetwork.node[18].appl "finished Task" 28
scalar SolutionNetwork.node[18].appl Tasks 45
scalar SolutionNetwork.node[18].appl COMessages 74
scalar SolutionNetwork.node[18].nic.phy80211p busyTime 0.016205653333334
scalar SolutionNetwork.node[18].nic.mac1609_4 ReceivedUnicastPackets 38
scalar SolutionNetwork.node[18].nic.mac1609_4 ReceivedBroadcasts 2002
scalar SolutionNetwork.node[18].nic.mac1609_4 SentPackets 231
scalar SolutionNetwork.node[18].nic.mac1609_4 SentAcknowledgements 0
scalar SolutionNetwork.node[18].nic.mac1609_4 RetriesExceeded 0
scalar SolutionNetwork.node[18].nic.mac1609_4 SNIRLostPackets 8401
scalar SolutionNetwork.node[18].nic.mac1609_4 RXTXLostPackets 136
scalar SolutionNetwork.node[18].nic.mac1609_4 TotalLostPackets 8537
scalar SolutionNetwork.node[18].nic.mac1609_4 DroppedPacketsInMac 0
scalar SolutionNetwork.node[18].nic.mac1609_4 TooLittleTime 0
scalar SolutionNetwork.node[18].nic.mac1609_4 TimesIntoBackoff 232
scalar SolutionNetwork.node[18].nic.mac1609_4 SlotsBackoff 342
scalar SolutionNetwork.node[18].nic.mac1609_4 NumInternalContention 0
scalar SolutionNetwork.node[18].nic.mac1609_4 totalBusyTime 1.091296282318
scalar SolutionNetwork.node[18].nic.mac1609_4 retriesExceeded:count 0
attr source org_car2x_veins_modules_mac_sigRetriesExceeded
scalar SolutionNetwork.node[18].nic.mac1609_4 sentAcks:count 0
attr source org_car2x_veins_modules_mac_sigSentAck
scalar SolutionNetwork.node[18].nic.mac1609_4 sentPackets:count 231
attr source org_car2x_veins_modules_mac_sigSentPacket
scalar SolutionNetwork.node[18].nic.mac1609_4 collisions:count 0
attr source org_car2x_veins_modules_mac_sigCollision
scalar SolutionNetwork.node[18].nic.mac1609_4 channelBusy:timeavg 0.014550617097574
attr source org_car2x_veins_modules_mac_sigChannelBusy
scalar SolutionNetwork.node[18].veinsmobility startTime 19
scalar SolutionNetwork.node[18].veinsmobility totalTime 74
scalar SolutionNetwork.node[18].veinsmobility stopTime 94
scalar SolutionNetwork.node[18].veinsmobility minSpeed 33.3333
scalar SolutionNetwork.node[18].veinsmobility maxSpeed 33.3333
scalar SolutionNetwork.node[18].veinsmobility totalDistance 2466.6642
scalar SolutionNetwork.node[18].veinsmobility totalCO2Emission 448.17825332139
scalar SolutionNetwork.node[19].appl generatedWSMs 0
scalar SolutionNetwork.node[19].appl receivedWSMs 42
scalar SolutionNetwork.node[19].appl generatedBSMs 0
scalar SolutionNetwork.node[19].appl receivedBSMs 2046
scalar SolutionNetwork.node[19].appl generatedWSAs 0
scalar SolutionNetwork.node[19].appl receivedWSAs 0
scalar SolutionNetwork.node[19].appl "finished Task" 33
scalar SolutionNetwork.node[19].appl Tasks 45
scalar SolutionNetwork.node[19].appl COMessages 78
scalar SolutionNetwork.node[19].nic.phy80211p busyTime 0.016196693333334
scalar SolutionNetwork.node[19].nic.mac1609_4 ReceivedUnicastPackets 42
scalar SolutionNetwork.node[19].nic.mac1609_4 ReceivedBroadcasts 2046
scalar SolutionNetwork.node[19].nic.mac1609_4 SentPackets 235
scalar SolutionNetwork.node[19].nic.mac1609_4 SentAcknowledgements 0
scalar SolutionNetwork.node[19].nic.mac1609_4 RetriesExceeded 0
scalar SolutionNetwork.node[19].nic.mac1609_4 SNIRLostPackets 8230
scalar SolutionNetwork.node[19].nic.mac1609_4 RXTXLostPackets 136
scalar SolutionNetwork.node[19].nic.mac1609_4 TotalLostPackets 8366
scalar SolutionNetwork.node[19].nic.mac1609_4 DroppedPacketsInMac 0
scalar SolutionNetwork.node[19].nic.mac1609_4 TooLittleTime 0
scalar SolutionNetwork.node[19].nic.mac1609_4 TimesIntoBackoff 238
scalar SolutionNetwork.node[19].nic.mac1609_4 SlotsBackoff 325
scalar SolutionNetwork.node[19].nic.mac1609_4 NumInternalContention 0
scalar SolutionNetwork.node[19].nic.mac1609_4 totalBusyTime 1.091300500137
scalar SolutionNetwork.node[19].nic.mac1609_4 retriesExceeded:count 0
attr source org_car2x_veins_modules_mac_sigRetriesExceeded
scalar SolutionNetwork.node[19].nic.mac1609_4 sentAcks:count 0
attr source org_car2x_veins_modules_mac_sigSentAck
scalar SolutionNetwork.node[19].nic.mac1609_4 sentPackets:count 235
attr source org_car2x_veins_modules_mac_sigSentPacket
scalar SolutionNetwork.node[19].nic.mac1609_4 collisions:count 0
attr source org_car2x_veins_modules_mac_sigCollision
scalar SolutionNetwork.node[19].nic.mac1609_4 channelBusy:timeavg 0.01455067333516
attr source org_car2x_veins_modules_mac_sigChannelBusy
scalar SolutionNetwork.node[19].veinsmobility startTime 19
scalar SolutionNetwork.node[19].veinsmobility totalTime 74
scalar SolutionNetwork.node[19].veinsmobility stopTime 94
scalar SolutionNetwork.node[19].veinsmobility minSpeed 33.3333
scalar SolutionNetwork.node[19].veinsmobility maxSpeed 33.3333
scalar SolutionNetwork.node[19].veinsmobility totalDistance 2466.6642
scalar SolutionNetwork.node[19].veinsmobility totalCO2Emission 448.17825332139
scalar SolutionNetwork.node[20].appl generatedWSMs 0
scalar SolutionNetwork.node[20].appl receivedWSMs 40
scalar SolutionNetwork.node[20].appl generatedBSMs 0
scalar SolutionNetwork.node[20].appl receivedBSMs 1997
scalar SolutionNetwork.node[20].appl generatedWSAs 0
scalar SolutionNetwork.node[20].appl receivedWSAs 0
scalar SolutionNetwork.node[20].appl "finished Task" 31
scalar SolutionNetwork.node[20].appl Tasks 45
scalar SolutionNetwork.node[20].appl COMessages 76
scalar SolutionNetwork.node[20].nic.phy80211p busyTime 0.016592960000001
scalar SolutionNetwork.node[20].nic.mac1609_4 ReceivedUnicastPackets 40
scalar SolutionNetwork.node[20].nic.mac1609_4 ReceivedBroadcasts 1997
scalar SolutionNetwork.node[20].nic.mac1609_4 SentPackets 85
scalar SolutionNetwork.node[20].nic.mac1609_4 SentAcknowledgements 0
scalar SolutionNetwork.node[20].nic.mac1609_4 RetriesExceeded 0
scalar SolutionNetwork.node[20].nic.mac1609_4 SNIRLostPackets 8671
scalar SolutionNetwork.node[20].nic.mac1609_4 RXTXLostPackets 1
scalar SolutionNetwork.node[20].nic.mac1609_4 TotalLostPackets 8672
scalar SolutionNetwork.node[20].nic.mac1609_4 DroppedPacketsInMac 0
scalar SolutionNetwork.node[20].nic.mac1609_4 TooLittleTime 0
scalar SolutionNetwork.node[20].nic.mac1609_4 TimesIntoBackoff 85
scalar SolutionNetwork.node[20].nic.mac1609_4 SlotsBackoff 118
scalar SolutionNetwork.node[20].nic.mac1609_4 NumInternalContention 0
scalar SolutionNetwork.node[20].nic.mac1609_4 totalBusyTime 1.083133
scalar SolutionNetwork.node[20].nic.mac1609_4 retriesExceeded:count 0
attr source org_car2x_veins_modules_mac_sigRetriesExceeded
scalar SolutionNetwork.node[20].nic.mac1609_4 sentAcks:count 0
attr source org_car2x_veins_modules_mac_sigSentAck
scalar SolutionNetwork.node[20].nic.mac1609_4 sentPackets:count 85
attr source org_car2x_veins_modules_mac_sigSentPacket
scalar SolutionNetwork.node[20].nic.mac1609_4 collisions:count 0
attr source org_car2x_veins_modules_mac_sigCollision
scalar SolutionNetwork.node[20].nic.mac1609_4 channelBusy:timeavg 0.014441773333334
attr source org_car2x_veins_modules_mac_sigChannelBusy
scalar SolutionNetwork.node[20].veinsmobility startTime 21
scalar SolutionNetwork.node[20].veinsmobility totalTime 74
scalar SolutionNetwork.node[20].veinsmobility stopTime 96
scalar SolutionNetwork.node[20].veinsmobility minSpeed 33.3333
scalar SolutionNetwork.node[20].veinsmobility maxSpeed 33.3333
scalar SolutionNetwork.node[20].veinsmobility totalDistance 2466.6642
scalar SolutionNetwork.node[20].veinsmobility totalCO2Emission 448.17825332139
scalar SolutionNetwork.node[21].appl generatedWSMs 0
scalar SolutionNetwork.node[21].appl receivedWSMs 43
scalar SolutionNetwork.node[21].appl generatedBSMs 0
scalar SolutionNetwork.node[21].appl receivedBSMs 2055
scalar SolutionNetwork.node[21].appl generatedWSAs 0
scalar SolutionNetwork.node[21].appl receivedWSAs 0
scalar SolutionNetwork.node[21].appl "finished Task" 33
scalar SolutionNetwork.node[21].appl Tasks 45
scalar SolutionNetwork.node[21].appl COMessages 79
scalar SolutionNetwork.node[21].nic.phy80211p busyTime 0.016568426666668
scalar SolutionNetwork.node[21].nic.mac1609_4 ReceivedUnicastPackets 43
scalar SolutionNetwork.node[21].nic.mac1609_4 ReceivedBroadcasts 2055
scalar SolutionNetwork.node[21].nic.mac1609_4 SentPackets 96
scalar SolutionNetwork.node[21].nic.mac1609_4 SentAcknowledgements 0
scalar SolutionNetwork.node[21].nic.mac1609_4 RetriesExceeded 0
scalar SolutionNetwork.node[21].nic.mac1609_4 SNIRLostPackets 8455
scalar SolutionNetwork.node[21].nic.mac1609_4 RXTXLostPackets 4
scalar SolutionNetwork.node[21].nic.mac1609_4 TotalLostPackets 8459
scalar SolutionNetwork.node[21].nic.mac1609_4 DroppedPacketsInMac 0
scalar SolutionNetwork.node[21].nic.mac1609_4 TooLittleTime 0
scalar SolutionNetwork.node[21].nic.mac1609_4 TimesIntoBackoff 97
scalar SolutionNetwork.node[21].nic.mac1609_4 SlotsBackoff 151
scalar SolutionNetwork.node[21].nic.mac1609_4 NumInternalContention 0
scalar SolutionNetwork.node[21].nic.mac1609_4 totalBusyTime 1.083208028192
scalar SolutionNetwork.node[21].nic.mac1609_4 retriesExceeded:count 0
attr source org_car2x_veins_modules_mac_sigRetriesExceeded
scalar SolutionNetwork.node[21].nic.mac1609_4 sentAcks:count 0
attr source org_car2x_veins_modules_mac_sigSentAck
scalar SolutionNetwork.node[21].nic.mac1609_4 sentPackets:count 96
attr source org_car2x_veins_modules_mac_sigSentPacket
scalar SolutionNetwork.node[21].nic.mac1609_4 collisions:count 0
attr source org_car2x_veins_modules_mac_sigCollision
scalar SolutionNetwork.node[21].nic.mac1609_4 channelBusy:timeavg 0.014442773709227
attr source org_car2x_veins_modules_mac_sigChannelBusy
scalar SolutionNetwork.node[21].veinsmobility startTime 21
scalar SolutionNetwork.node[21].veinsmobility totalTime 74
scalar SolutionNetwork.node[21].veinsmobility stopTime 96
scalar SolutionNetwork.node[21].veinsmobility minSpeed 33.3333
scalar SolutionNetwork.node[21].veinsmobility maxSpeed 33.3333
scalar SolutionNetwork.node[21].veinsmobility totalDistance 2466.6642
scalar SolutionNetwork.node[21].veinsmobility totalCO2Emission 448.17825332139
scalar SolutionNetwork.node[22].appl generatedWSMs 0
scalar SolutionNetwork.node[22].appl receivedWSMs 44
scalar SolutionNetwork.node[22].appl generatedBSMs 0
scalar SolutionNetwork.node[22].appl receivedBSMs 2024
scalar SolutionNetwork.node[22].appl generatedWSAs 0
scalar SolutionNetwork.node[22].appl receivedWSAs 0
scalar SolutionNetwork.node[22].appl "finished Task" 34
scalar SolutionNetwork.node[22].appl Tasks 45
scalar SolutionNetwork.node[22].appl COMessages 80
scalar SolutionNetwork.node[22].nic.phy80211p busyTime 0.016388906666668
scalar SolutionNetwork.node[22].nic.mac1609_4 ReceivedUnicastPackets 44
scalar SolutionNetwork.node[22].nic.mac1609_4 ReceivedBroadcasts 2024
scalar SolutionNetwork.node[22].nic.mac1609_4 SentPackets 108
scalar SolutionNetwork.node[22].nic.mac1609_4 SentAcknowledgements 0
scalar SolutionNetwork.node[22].nic.mac1609_4 RetriesExceeded 0
scalar SolutionNetwork.node[22].nic.mac1609_4 SNIRLostPackets 8812
scalar SolutionNetwork.node[22].nic.mac1609_4 RXTXLostPackets 18
scalar SolutionNetwork.node[22].nic.mac1609_4 TotalLostPackets 8830
scalar SolutionNetwork.node[22].nic.mac1609_4 DroppedPacketsInMac 0
scalar SolutionNetwork.node[22].nic.mac1609_4 TooLittleTime 0
scalar SolutionNetwork.node[22].nic.mac1609_4 TimesIntoBackoff 109
scalar SolutionNetwork.node[22].nic.mac1609_4 SlotsBackoff 169
scalar SolutionNetwork.node[22].nic.mac1609_4 NumInternalContention 0
scalar SolutionNetwork.node[22].nic.mac1609_4 totalBusyTime 1.073836
scalar SolutionNetwork.node[22].nic.mac1609_4 retriesExceeded:count 0
attr source org_car2x_veins_modules_mac_sigRetriesExceeded
scalar SolutionNetwork.node[22].nic.mac1609_4 sentAcks:count 0
attr source org_car2x_veins_modules_mac_sigSentAck
scalar SolutionNetwork.node[22].nic.mac1609_4 sentPackets:count 108
attr source org_car2x_veins_modules_mac_sigSentPacket
scalar SolutionNetwork.node[22].nic.mac1609_4 collisions:count 0
attr source org_car2x_veins_modules_mac_sigCollision
scalar SolutionNetwork.node[22].nic.mac1609_4 channelBusy:timeavg 0.014317813333333
attr source org_car2x_veins_modules_mac_sigChannelBusy
scalar SolutionNetwork.node[22].veinsmobility startTime 23
scalar SolutionNetwork.node[22].veinsmobility totalTime 74
scalar SolutionNetwork.node[22].veinsmobility stopTime 98
scalar SolutionNetwork.node[22].veinsmobility minSpeed 33.33
scalar SolutionNetwork.node[22].veinsmobility maxSpeed 33.33
scalar SolutionNetwork.node[22].veinsmobility totalDistance 2466.42
scalar SolutionNetwork.node[22].veinsmobility totalCO2Emission 448.0924595567
scalar SolutionNetwork.node[23].appl generatedWSMs 0
scalar SolutionNetwork.node[23].appl receivedWSMs 43
scalar SolutionNetwork.node[23].appl generatedBSMs 0
scalar SolutionNetwork.node[23].appl receivedBSMs 2047
scalar SolutionNetwork.node[23].appl generatedWSAs 0
scalar SolutionNetwork.node[23].appl receivedWSAs 0
scalar SolutionNetwork.node[23].appl "finished Task" 33
scalar SolutionNetwork.node[23].appl Tasks 45
scalar SolutionNetwork.node[23].appl COMessages 79
scalar SolutionNetwork.node[23].nic.phy80211p busyTime 0.016397013333335
scalar SolutionNetwork.node[23].nic.mac1609_4 ReceivedUnicastPackets 43
scalar SolutionNetwork.node[23].nic.mac1609_4 ReceivedBroadcasts 2047
scalar SolutionNetwork.node[23].nic.mac1609_4 SentPackets 105
scalar SolutionNetwork.node[23].nic.mac1609_4 SentAcknowledgements 0
scalar SolutionNetwork.node[23].nic.mac1609_4 RetriesExceeded 0
scalar SolutionNetwork.node[23].nic.mac1609_4 SNIRLostPackets 8650
scalar SolutionNetwork.node[23].nic.mac1609_4 RXTXLostPackets 17
scalar SolutionNetwork.node[23].nic.mac1609_4 TotalLostPackets 8667
scalar SolutionNetwork.node[23].nic.mac1609_4 DroppedPacketsInMac 0
scalar SolutionNetwork.node[23].nic.mac1609_4 TooLittleTime 0
scalar SolutionNetwork.node[23].nic.mac1609_4 TimesIntoBackoff 106
scalar SolutionNetwork.node[23].nic.mac1609_4 SlotsBackoff 169
scalar SolutionNetwork.node[23].nic.mac1609_4 NumInternalContention 0
scalar SolutionNetwork.node[23].nic.mac1609_4 totalBusyTime 1.073897
scalar SolutionNetwork.node[23].nic.mac1609_4 retriesExceeded:count 0
attr source org_car2x_veins_modules_mac_sigRetriesExceeded
scalar SolutionNetwork.node[23].nic.mac1609_4 sentAcks:count 0
attr source org_car2x_veins_modules_mac_sigSentAck
scalar SolutionNetwork.node[23].nic.mac1609_4 sentPackets:count 105
attr source org_car2x_veins_modules_mac_sigSentPacket
scalar SolutionNetwork.node[23].nic.mac1609_4 collisions:count 0
attr source org_car2x_veins_modules_mac_sigCollision
scalar SolutionNetwork.node[23].nic.mac1609_4 channelBusy:timeavg 0.014318626666667
attr source org_car2x_veins_modules_mac_sigChannelBusy
scalar SolutionNetwork.node[23].veinsmobility startTime 23
scalar SolutionNetwork.node[23].veinsmobility totalTime 74
scalar SolutionNetwork.node[23].veinsmobility stopTime 98
scalar SolutionNetwork.node[23].veinsmobility minSpeed 33.3333
scalar SolutionNetwork.node[23].veinsmobility maxSpeed 33.3333
scalar SolutionNetwork.node[23].veinsmobility totalDistance 2466.6642
scalar SolutionNetwork.node[23].veinsmobility totalCO2Emission 448.17825332139
scalar SolutionNetwork.node[24].appl generatedWSMs 0
scalar SolutionNetwork.node[24].appl receivedWSMs 43
scalar SolutionNetwork.node[24].appl generatedBSMs 0
scalar SolutionNetwork.node[24].appl receivedBSMs 2041
scalar SolutionNetwork.node[24].appl generatedWSAs 0
scalar SolutionNetwork.node[24].appl receivedWSAs 0
scalar SolutionNetwork.node[24].appl "finished Task" 34
scalar SolutionNetwork.node[24].appl Tasks 45
scalar SolutionNetwork.node[24].appl COMessages 79
scalar SolutionNetwork.node[24].nic.phy80211p busyTime 0.016281066666668
scalar SolutionNetwork.node[24].nic.mac1609_4 ReceivedUnicastPackets 43
scalar SolutionNetwork.node[24].nic.mac1609_4 ReceivedBroadcasts 2041
scalar SolutionNetwork.node[24].nic.mac1609_4 SentPackets 102
scalar SolutionNetwork.node[24].nic.mac1609_4 SentAcknowledgements 0
scalar SolutionNetwork.node[24].nic.mac1609_4 RetriesExceeded 0
scalar SolutionNetwork.node[24].nic.mac1609_4 SNIRLostPackets 8772
scalar SolutionNetwork.node[24].nic.mac1609_4 RXTXLostPackets 3
scalar SolutionNetwork.node[24].nic.mac1609_4 TotalLostPackets 8775
scalar SolutionNetwork.node[24].nic.mac1609_4 DroppedPacketsInMac 0
scalar SolutionNetwork.node[24].nic.mac1609_4 TooLittleTime 0
scalar SolutionNetwork.node[24].nic.mac1609_4 TimesIntoBackoff 102
scalar SolutionNetwork.node[24].nic.mac1609_4 SlotsBackoff 150
scalar SolutionNetwork.node[24].nic.mac1609_4 NumInternalContention 0
scalar SolutionNetwork.node[24].nic.mac1609_4 totalBusyTime 1.063222
scalar SolutionNetwork.node[24].nic.mac1609_4 retriesExceeded:count 0
attr source org_car2x_veins_modules_mac_sigRetriesExceeded
scalar SolutionNetwork.node[24].nic.mac1609_4 sentAcks:count 0
attr source org_car2x_veins_modules_mac_sigSentAck
scalar SolutionNetwork.node[24].nic.mac1609_4 sentPackets:count 102
attr source org_car2x_veins_modules_mac_sigSentPacket
scalar SolutionNetwork.node[24].nic.mac1609_4 collisions:count 0
attr source org_car2x_veins_modules_mac_sigCollision
scalar SolutionNetwork.node[24].nic.mac1609_4 channelBusy:timeavg 0.014176293333333
attr source org_car2x_veins_modules_mac_sigChannelBusy
scalar SolutionNetwork.node[24].veinsmobility startTime 25
scalar SolutionNetwork.node[24].veinsmobility totalTime 74
scalar SolutionNetwork.node[24].veinsmobility stopTime 100
scalar SolutionNetwork.node[24].veinsmobility minSpeed 33.3333
scalar SolutionNetwork.node[24].veinsmobility maxSpeed 33.3333
scalar SolutionNetwork.node[24].veinsmobility totalDistance 2466.6642
scalar SolutionNetwork.node[24].veinsmobility totalCO2Emission 448.17825332139
scalar SolutionNetwork.manager roiArea 0
scalar SolutionNetwork.rsu[0].appl generatedWSMs 0
scalar SolutionNetwork.rsu[0].appl receivedWSMs 401
scalar SolutionNetwork.rsu[0].appl generatedBSMs 3094
scalar SolutionNetwork.rsu[0].appl receivedBSMs 0
scalar SolutionNetwork.rsu[0].appl generatedWSAs 0
scalar SolutionNetwork.rsu[0].appl receivedWSAs 0
scalar SolutionNetwork.rsu[0].appl COMessages 3956
scalar SolutionNetwork.rsu[0].nic.phy80211p busyTime 0.009471600000003
scalar SolutionNetwork.rsu[0].nic.mac1609_4 ReceivedUnicastPackets 401
scalar SolutionNetwork.rsu[0].nic.mac1609_4 ReceivedBroadcasts 0
scalar SolutionNetwork.rsu[0].nic.mac1609_4 SentPackets 3286
scalar SolutionNetwork.rsu[0].nic.mac1609_4 SentAcknowledgements 0
scalar SolutionNetwork.rsu[0].nic.mac1609_4 RetriesExceeded 0
scalar SolutionNetwork.rsu[0].nic.mac1609_4 SNIRLostPackets 17799
scalar SolutionNetwork.rsu[0].nic.mac1609_4 RXTXLostPackets 35
scalar SolutionNetwork.rsu[0].nic.mac1609_4 TotalLostPackets 17834
scalar SolutionNetwork.rsu[0].nic.mac1609_4 DroppedPacketsInMac 0
scalar SolutionNetwork.rsu[0].nic.mac1609_4 TooLittleTime 0
scalar SolutionNetwork.rsu[0].nic.mac1609_4 TimesIntoBackoff 3311
scalar SolutionNetwork.rsu[0].nic.mac1609_4 SlotsBackoff 5367
scalar SolutionNetwork.rsu[0].nic.mac1609_4 NumInternalContention 0
scalar SolutionNetwork.rsu[0].nic.mac1609_4 totalBusyTime 1.785358
scalar SolutionNetwork.rsu[0].nic.mac1609_4 retriesExceeded:count 0
attr source org_car2x_veins_modules_mac_sigRetriesExceeded
scalar SolutionNetwork.rsu[0].nic.mac1609_4 sentAcks:count 0
attr source org_car2x_veins_modules_mac_sigSentAck
scalar SolutionNetwork.rsu[0].nic.mac1609_4 sentPackets:count 3286
attr source org_car2x_veins_modules_mac_sigSentPacket
scalar SolutionNetwork.rsu[0].nic.mac1609_4 collisions:count 0
attr source org_car2x_veins_modules_mac_sigCollision
scalar SolutionNetwork.rsu[0].nic.mac1609_4 channelBusy:timeavg 0.0099186555555582
attr source org_car2x_veins_modules_mac_sigChannelBusy
scalar SolutionNetwork.rsu[0].eth.mac.queue packetPopped:count 2032
attr interpolationmode none
attr title "packet popped, count"
scalar SolutionNetwork.rsu[0].eth.mac.queue packetPopped:sum(packetBytes) 221488
attr interpolationmode none
attr title "packet popped, sum(packetBytes)"
statistic SolutionNetwork.rsu[0].eth.mac.queue queueingTime:histogram
field count 2032
field mean 3.1251968503937e-005
field stddev 2.4776910998434e-005
field min 0
field max 7.128e-005
field sum 0.063504
field sqrsum 3.2314464e-006
attr interpolationmode none
attr source queueingTime(packetPopped)
attr title "queueing times, histogram"
attr unit s
bin	-inf	0
bin	0	457
bin	1e-006	0
bin	2e-006	0
bin	3e-006	0
bin	4e-006	0
bin	5e-006	0
bin	6e-006	0
bin	7e-006	0
bin	8e-006	0
bin	9e-006	225
bin	1e-005	0
bin	1.1e-005	0
bin	1.2e-005	0
bin	1.3e-005	0
bin	1.4e-005	0
bin	1.5e-005	0
bin	1.6e-005	0
bin	1.7e-005	0
bin	1.8e-005	0
bin	1.9e-005	225
bin	2e-005	0
bin	2.1e-005	0
bin	2.2e-005	0
bin	2.3e-005	0
bin	2.4e-005	0
bin	2.5e-005	0
bin	2.6e-005	0
bin	2.7e-005	0
bin	2.8e-005	0
bin	2.9e-005	225
bin	3e-005	0
bin	3.1e-005	0
bin	3.2e-005	0
bin	3.3e-005	0
bin	3.4e-005	0
bin	3.5e-005	0
bin	3.6e-005	0
bin	3.7e-005	0
bin	3.8e-005	0
bin	3.9e-005	0
bin	4e-005	225
bin	4.1e-005	0
bin	4.2e-005	0
bin	4.3e-005	0
bin	4.4e-005	0
bin	4.5e-005	0
bin	4.6e-005	0
bin	4.7e-005	0
bin	4.8e-005	0
bin	4.9e-005	0
bin	5e-005	225
bin	5.1e-005	0
bin	5.2e-005	0
bin	5.3e-005	0
bin	5.4e-005	0
bin	5.5e-005	0
bin	5.6e-005	0
bin	5.7e-005	0
bin	5.8e-005	0
bin	5.9e-005	0
bin	6e-005	225
bin	6.1e-005	0
bin	6.2e-005	0
bin	6.3e-005	0
bin	6.4e-005	0
bin	6.5e-005	0
bin	6.6e-005	0
bin	6.7e-005	0
bin	6.8e-005	0
bin	6.9e-005	0
bin	7e-005	0
bin	7.1e-005	225
bin	7.2e-005	0
bin	7.3e-005	0
bin	7.4e-005	0
bin	7.5e-005	0
bin	7.6e-005	0
bin	7.7e-005	0
bin	7.8e-005	0
bin	7.9e-005	0
bin	8e-005	0
bin	8.1e-005	0
bin	8.2e-005	0
bin	8.3e-005	0
bin	8.4e-005	0
bin	8.5e-005	0
bin	8.6e-005	0
bin	8.7e-005	0
bin	8.8e-005	0
bin	8.9e-005	0
bin	9e-005	0
scalar SolutionNetwork.rsu[0].eth.mac.queue queueLength:max 7
attr interpolationmode sample-hold
attr source "count(packetPushed) - count(packetPopped) - count(packetRemoved) - count(packetDropped)"
attr title "queue length, max"
scalar SolutionNetwork.rsu[0].eth.mac.queue queueLength:timeavg 0.0003528
attr interpolationmode sample-hold
attr source "count(packetPushed) - count(packetPopped) - count(packetRemoved) - count(packetDropped)"
attr title "queue length, timeavg"
scalar SolutionNetwork.rsu[0].eth.mac.queue packetPushed:count 2032
attr interpolationmode none
attr title "packet pushed, count"
scalar SolutionNetwork.rsu[0].eth.mac.queue packetPushed:sum(packetBytes) 221488
attr interpolationmode none
attr title "packet pushed, sum(packetBytes)"
scalar SolutionNetwork.rsu[0].eth.mac.queue packetDropQueueOverflow:count 0
attr interpolationmode none
attr source packetDropReasonIsQueueOverflow(packetDropped)
attr title "packet drops: queue overflow, count"
scalar SolutionNetwork.rsu[0].eth.mac.queue packetDropQueueOverflow:sum(packetBytes) 0
attr interpolationmode none
attr source packetDropReasonIsQueueOverflow(packetDropped)
attr title "packet drops: queue overflow, sum(packetBytes)"
scalar SolutionNetwork.rsu[0].eth.mac.queue packetRemoved:count 0
attr interpolationmode none
attr title "packets removed, count"
scalar SolutionNetwork.rsu[0].eth.mac.queue packetRemoved:sum(packetBytes) 0
attr interpolationmode none
attr title "packets removed, sum(packetBytes)"
scalar SolutionNetwork.rsu[0].eth.mac "simulated time" 180
scalar SolutionNetwork.rsu[0].eth.mac full-duplex 1
scalar SolutionNetwork.rsu[0].eth.mac "frames/sec sent" 11.288888888889
scalar SolutionNetwork.rsu[0].eth.mac "frames/sec rcvd" 11.022222222222
scalar SolutionNetwork.rsu[0].eth.mac "bits/sec sent" 9843.9111111111
scalar SolutionNetwork.rsu[0].eth.mac "bits/sec rcvd" 9611.3777777778
scalar SolutionNetwork.rsu[0].eth.mac "rx channel idle (%)" 99.9896832
scalar SolutionNetwork.rsu[0].eth.mac "rx channel utilization (%)" 0.0103168
scalar SolutionNetwork.rsu[0].eth.mac "rx channel collision (%)" 0
scalar SolutionNetwork.rsu[0].eth.mac collisions 0
scalar SolutionNetwork.rsu[0].eth.mac backoffs 0
scalar SolutionNetwork.rsu[0].eth.mac txPk:count 2032
attr interpolationmode none
attr source packetSentToLower
attr title "packets transmitted, count"
scalar SolutionNetwork.rsu[0].eth.mac txPk:sum(packetBytes) 221488
attr interpolationmode none
attr source packetSentToLower
attr title "packets transmitted, sum(packetBytes)"
scalar SolutionNetwork.rsu[0].eth.mac packetReceivedFromUpper:count 2032
attr interpolationmode none
attr source packetReceivedFromUpper
attr title "packet bytes from higher layer, count"
scalar SolutionNetwork.rsu[0].eth.mac packetReceivedFromUpper:sum(packetBytes) 221488
attr interpolationmode none
attr source packetReceivedFromUpper
attr title "packet bytes from higher layer, sum(packetBytes)"
scalar SolutionNetwork.rsu[0].eth.mac passedUpPk:count 1984
attr interpolationmode none
attr source packetSentToUpper
attr title "packets passed to higher layer, count"
scalar SolutionNetwork.rsu[0].eth.mac passedUpPk:sum(packetBytes) 216256
attr interpolationmode none
attr source packetSentToUpper
attr title "packets passed to higher layer, sum(packetBytes)"
scalar SolutionNetwork.rsu[0].eth.mac packetDropIncorrectlyReceived:count 0
attr interpolationmode none
attr source packetDropReasonIsIncorrectlyReceived(packetDropped)
attr title "packet drop: incorrectly received, count"
scalar SolutionNetwork.rsu[0].eth.mac packetDropIncorrectlyReceived:sum(packetBytes) 0
attr interpolationmode none
attr source packetDropReasonIsIncorrectlyReceived(packetDropped)
attr title "packet drop: incorrectly received, sum(packetBytes)"
scalar SolutionNetwork.rsu[0].eth.mac packetDropInterfaceDown:count 0
attr interpolationmode none
attr source packetDropReasonIsInterfaceDown(packetDropped)
attr title "packet drop: interface down, count"
scalar SolutionNetwork.rsu[0].eth.mac packetDropInterfaceDown:sum(packetBytes) 0
attr interpolationmode none
attr source packetDropReasonIsInterfaceDown(packetDropped)
attr title "packet drop: interface down, sum(packetBytes)"
scalar SolutionNetwork.rsu[0].eth.mac packetDropNotAddressedToUs:count 0
attr interpolationmode none
attr source packetDropReasonIsNotAddressedToUs(packetDropped)
attr title "packet drop: not addressed to us, count"
scalar SolutionNetwork.rsu[0].eth.mac packetDropNotAddressedToUs:sum(packetBytes) 0
attr interpolationmode none
attr source packetDropReasonIsNotAddressedToUs(packetDropped)
attr title "packet drop: not addressed to us, sum(packetBytes)"
scalar SolutionNetwork.rsu[0].eth.mac backoffSlotsGenerated:count 0
attr interpolationmode none
attr title "backoff, count"
scalar SolutionNetwork.rsu[0].eth.mac collision:count 0
attr interpolationmode none
attr title "collision, count"
scalar SolutionNetwork.rsu[0].eth.mac rxPausePkUnits:count 0
attr interpolationmode none
attr title "pause units received, count"
scalar SolutionNetwork.rsu[0].eth.mac rxPausePkUnits:sum 0
attr interpolationmode none
attr title "pause units received, sum"
scalar SolutionNetwork.rsu[0].eth.mac txPausePkUnits:count 0
attr interpolationmode none
attr title "pause units sent, count"
scalar SolutionNetwork.rsu[0].eth.mac txPausePkUnits:sum 0
attr interpolationmode none
attr title "pause units sent, sum"
scalar SolutionNetwork.rsu[0].eth.mac rxPkOk:count 1984
attr interpolationmode none
attr source rxPkOk
attr title "packets received OK, count"
scalar SolutionNetwork.rsu[0].eth.mac rxPkOk:sum(packetBytes) 216256
attr interpolationmode none
attr source rxPkOk
attr title "packets received OK, sum(packetBytes)"
scalar SolutionNetwork.rsu[0].eth.encap pauseSent:count 0
attr title "pause sent, count"
scalar SolutionNetwork.rsu[0].eth.encap pauseSent:sum 0
attr title "pause sent, sum"
scalar SolutionNetwork.rsu[0].eth.encap decapPk:count 0
attr interpolationmode none
attr source decapPk
attr title "packets decapsulated, count"
scalar SolutionNetwork.rsu[0].eth.encap decapPk:sum(packetBytes) 0
attr interpolationmode none
attr source decapPk
attr title "packets decapsulated, sum(packetBytes)"
scalar SolutionNetwork.rsu[0].eth.encap encapPk:count 2032
attr interpolationmode none
attr source encapPk
attr title "packets encapsulated, count"
scalar SolutionNetwork.rsu[0].eth.encap encapPk:sum(packetBytes) 178816
attr interpolationmode none
attr source encapPk
attr title "packets encapsulated, sum(packetBytes)"
scalar SolutionNetwork.rsu[1].appl generatedWSMs 0
scalar SolutionNetwork.rsu[1].appl receivedWSMs 574
scalar SolutionNetwork.rsu[1].appl generatedBSMs 3306
scalar SolutionNetwork.rsu[1].appl receivedBSMs 1
scalar SolutionNetwork.rsu[1].appl generatedWSAs 0
scalar SolutionNetwork.rsu[1].appl receivedWSAs 0
scalar SolutionNetwork.rsu[1].appl COMessages 4050
scalar SolutionNetwork.rsu[1].nic.phy80211p busyTime 0.0092080888888917
scalar SolutionNetwork.rsu[1].nic.mac1609_4 ReceivedUnicastPackets 574
scalar SolutionNetwork.rsu[1].nic.mac1609_4 ReceivedBroadcasts 1
scalar SolutionNetwork.rsu[1].nic.mac1609_4 SentPackets 3663
scalar SolutionNetwork.rsu[1].nic.mac1609_4 SentAcknowledgements 0
scalar SolutionNetwork.rsu[1].nic.mac1609_4 RetriesExceeded 0
scalar SolutionNetwork.rsu[1].nic.mac1609_4 SNIRLostPackets 17002
scalar SolutionNetwork.rsu[1].nic.mac1609_4 RXTXLostPackets 107
scalar SolutionNetwork.rsu[1].nic.mac1609_4 TotalLostPackets 17109
scalar SolutionNetwork.rsu[1].nic.mac1609_4 DroppedPacketsInMac 0
scalar SolutionNetwork.rsu[1].nic.mac1609_4 TooLittleTime 0
scalar SolutionNetwork.rsu[1].nic.mac1609_4 TimesIntoBackoff 3689
scalar SolutionNetwork.rsu[1].nic.mac1609_4 SlotsBackoff 6257
scalar SolutionNetwork.rsu[1].nic.mac1609_4 NumInternalContention 0
scalar SolutionNetwork.rsu[1].nic.mac1609_4 totalBusyTime 1.785863
scalar SolutionNetwork.rsu[1].nic.mac1609_4 retriesExceeded:count 0
attr source org_car2x_veins_modules_mac_sigRetriesExceeded
[...]
attr title "packets transmitted, sum(packetBytes)"
scalar SolutionNetwork.switch17.eth[1].mac packetReceivedFromUpper:count 3186
attr interpolationmode none
attr source packetReceivedFromUpper
attr title "packet bytes from higher layer, count"
scalar SolutionNetwork.switch17.eth[1].mac packetReceivedFromUpper:sum(packetBytes) 347274
attr interpolationmode none
attr source packetReceivedFromUpper
attr title "packet bytes from higher layer, sum(packetBytes)"
scalar SolutionNetwork.switch17.eth[1].mac passedUpPk:count 3138
attr interpolationmode none
attr source packetSentToUpper
attr title "packets passed to higher layer, count"
scalar SolutionNetwork.switch17.eth[1].mac passedUpPk:sum(packetBytes) 342042
attr interpolationmode none
attr source packetSentToUpper
attr title "packets passed to higher layer, sum(packetBytes)"
scalar SolutionNetwork.switch17.eth[1].mac packetDropIncorrectlyReceived:count 0
attr interpolationmode none
attr source packetDropReasonIsIncorrectlyReceived(packetDropped)
attr title "packet drop: incorrectly received, count"
scalar SolutionNetwork.switch17.eth[1].mac packetDropIncorrectlyReceived:sum(packetBytes) 0
attr interpolationmode none
attr source packetDropReasonIsIncorrectlyReceived(packetDropped)
attr title "packet drop: incorrectly received, sum(packetBytes)"
scalar SolutionNetwork.switch17.eth[1].mac packetDropInterfaceDown:count 0
attr interpolationmode none
attr source packetDropReasonIsInterfaceDown(packetDropped)
attr title "packet drop: interface down, count"
scalar SolutionNetwork.switch17.eth[1].mac packetDropInterfaceDown:sum(packetBytes) 0
attr interpolationmode none
attr source packetDropReasonIsInterfaceDown(packetDropped)
attr title "packet drop: interface down, sum(packetBytes)"
scalar SolutionNetwork.switch17.eth[1].mac packetDropNotAddressedToUs:count 0
attr interpolationmode none
attr source packetDropReasonIsNotAddressedToUs(packetDropped)
attr title "packet drop: not addressed to us, count"
scalar SolutionNetwork.switch17.eth[1].mac packetDropNotAddressedToUs:sum(packetBytes) 0
attr interpolationmode none
attr source packetDropReasonIsNotAddressedToUs(packetDropped)
attr title "packet drop: not addressed to us, sum(packetBytes)"
scalar SolutionNetwork.switch17.eth[1].mac backoffSlotsGenerated:count 0
attr interpolationmode none
attr title "backoff, count"
scalar SolutionNetwork.switch17.eth[1].mac collision:count 0
attr interpolationmode none
attr title "collision, count"
scalar SolutionNetwork.switch17.eth[1].mac rxPausePkUnits:count 0
attr interpolationmode none
attr title "pause units received, count"
scalar SolutionNetwork.switch17.eth[1].mac rxPausePkUnits:sum 0
attr interpolationmode none
attr title "pause units received, sum"
scalar SolutionNetwork.switch17.eth[1].mac txPausePkUnits:count 0
attr interpolationmode none
attr title "pause units sent, count"
scalar SolutionNetwork.switch17.eth[1].mac txPausePkUnits:sum 0
attr interpolationmode none
attr title "pause units sent, sum"
scalar SolutionNetwork.switch17.eth[1].mac rxPkOk:count 3138
attr interpolationmode none
attr source rxPkOk
attr title "packets received OK, count"
scalar SolutionNetwork.switch17.eth[1].mac rxPkOk:sum(packetBytes) 342042
attr interpolationmode none
attr source rxPkOk
attr title "packets received OK, sum(packetBytes)"
scalar SolutionNetwork.switch17.encap pauseSent:count 0
attr title "pause sent, count"
scalar SolutionNetwork.switch17.encap pauseSent:sum 0
attr title "pause sent, sum"
scalar SolutionNetwork.switch17.encap decapPk:count 0
attr interpolationmode none
attr source decapPk
attr title "packets decapsulated, count"
scalar SolutionNetwork.switch17.encap decapPk:sum(packetBytes) 0
attr interpolationmode none
attr source decapPk
attr title "packets decapsulated, sum(packetBytes)"
scalar SolutionNetwork.switch17.encap encapPk:count 0
attr interpolationmode none
attr source encapPk
attr title "packets encapsulated, count"
scalar SolutionNetwork.switch17.encap encapPk:sum(packetBytes) 0
attr interpolationmode none
attr source encapPk
attr title "packets encapsulated, sum(packetBytes)"
scalar SolutionNetwork.switch18.relayUnit "number of received BPDUs from STP module" 0
scalar SolutionNetwork.switch18.relayUnit "number of received frames from network (including BPDUs)" 6324
scalar SolutionNetwork.switch18.relayUnit "number of dropped frames (including BPDUs)" 0
scalar SolutionNetwork.switch18.relayUnit "number of delivered BPDUs to the STP module" 0
scalar SolutionNetwork.switch18.relayUnit "number of dispatched BPDU frames to the network" 0
scalar SolutionNetwork.switch18.relayUnit "number of dispatched non-BDPU frames to the network" 6324
scalar SolutionNetwork.switch18.eth[0].mac.queue packetPopped:count 3138
attr interpolationmode none
attr title "packet popped, count"
scalar SolutionNetwork.switch18.eth[0].mac.queue packetPopped:sum(packetBytes) 342042
attr interpolationmode none
attr title "packet popped, sum(packetBytes)"
statistic SolutionNetwork.switch18.eth[0].mac.queue queueingTime:histogram
field count 3138
field mean 0
field stddev 0
field min 0
field max 0
field sum 0
field sqrsum 0
attr interpolationmode none
attr source queueingTime(packetPopped)
attr title "queueing times, histogram"
attr unit s
bin	-inf	0
bin	-0.5	0
bin	-0.48	0
bin	-0.46	0
bin	-0.44	0
bin	-0.42	0
bin	-0.4	0
bin	-0.38	0
bin	-0.36	0
bin	-0.34	0
bin	-0.32	0
bin	-0.3	0
bin	-0.28	0
bin	-0.26	0
bin	-0.24	0
bin	-0.22	0
bin	-0.2	0
bin	-0.18	0
bin	-0.16	0
bin	-0.14	0
bin	-0.12	0
bin	-0.1	0
bin	-0.08	0
bin	-0.06	0
bin	-0.04	0
bin	-0.02	0
bin	0	3138
bin	0.02	0
bin	0.04	0
bin	0.06	0
bin	0.08	0
bin	0.1	0
bin	0.12	0
bin	0.14	0
bin	0.16	0
bin	0.18	0
bin	0.2	0
bin	0.22	0
bin	0.24	0
bin	0.26	0
bin	0.28	0
bin	0.3	0
bin	0.32	0
bin	0.34	0
bin	0.36	0
bin	0.38	0
bin	0.4	0
bin	0.42	0
bin	0.44	0
bin	0.46	0
bin	0.48	0
bin	0.5	0
scalar SolutionNetwork.switch18.eth[0].mac.queue queueLength:max 1
attr interpolationmode sample-hold
attr source "count(packetPushed) - count(packetPopped) - count(packetRemoved) - count(packetDropped)"
attr title "queue length, max"
scalar SolutionNetwork.switch18.eth[0].mac.queue queueLength:timeavg 0
attr interpolationmode sample-hold
attr source "count(packetPushed) - count(packetPopped) - count(packetRemoved) - count(packetDropped)"
attr title "queue length, timeavg"
scalar SolutionNetwork.switch18.eth[0].mac.queue packetPushed:count 3138
attr interpolationmode none
attr title "packet pushed, count"
scalar SolutionNetwork.switch18.eth[0].mac.queue packetPushed:sum(packetBytes) 342042
attr interpolationmode none
attr title "packet pushed, sum(packetBytes)"
scalar SolutionNetwork.switch18.eth[0].mac.queue packetDropQueueOverflow:count 0
attr interpolationmode none
attr source packetDropReasonIsQueueOverflow(packetDropped)
attr title "packet drops: queue overflow, count"
scalar SolutionNetwork.switch18.eth[0].mac.queue packetDropQueueOverflow:sum(packetBytes) 0
attr interpolationmode none
attr source packetDropReasonIsQueueOverflow(packetDropped)
attr title "packet drops: queue overflow, sum(packetBytes)"
scalar SolutionNetwork.switch18.eth[0].mac.queue packetRemoved:count 0
attr interpolationmode none
attr title "packets removed, count"
scalar SolutionNetwork.switch18.eth[0].mac.queue packetRemoved:sum(packetBytes) 0
attr interpolationmode none
attr title "packets removed, sum(packetBytes)"
scalar SolutionNetwork.switch18.eth[0].mac "simulated time" 180
scalar SolutionNetwork.switch18.eth[0].mac full-duplex 1
scalar SolutionNetwork.switch18.eth[0].mac "frames/sec sent" 17.433333333333
scalar SolutionNetwork.switch18.eth[0].mac "frames/sec rcvd" 17.7
scalar SolutionNetwork.switch18.eth[0].mac "bits/sec sent" 15201.866666667
scalar SolutionNetwork.switch18.eth[0].mac "bits/sec rcvd" 15434.4
scalar SolutionNetwork.switch18.eth[0].mac "rx channel idle (%)" 99.9834328
scalar SolutionNetwork.switch18.eth[0].mac "rx channel utilization (%)" 0.0165672
scalar SolutionNetwork.switch18.eth[0].mac "rx channel collision (%)" 0
scalar SolutionNetwork.switch18.eth[0].mac collisions 0
scalar SolutionNetwork.switch18.eth[0].mac backoffs 0
scalar SolutionNetwork.switch18.eth[0].mac txPk:count 3138
attr interpolationmode none
attr source packetSentToLower
attr title "packets transmitted, count"
scalar SolutionNetwork.switch18.eth[0].mac txPk:sum(packetBytes) 342042
attr interpolationmode none
attr source packetSentToLower
attr title "packets transmitted, sum(packetBytes)"
scalar SolutionNetwork.switch18.eth[0].mac packetReceivedFromUpper:count 3138
attr interpolationmode none
attr source packetReceivedFromUpper
attr title "packet bytes from higher layer, count"
scalar SolutionNetwork.switch18.eth[0].mac packetReceivedFromUpper:sum(packetBytes) 342042
attr interpolationmode none
attr source packetReceivedFromUpper
attr title "packet bytes from higher layer, sum(packetBytes)"
scalar SolutionNetwork.switch18.eth[0].mac passedUpPk:count 3186
attr interpolationmode none
attr source packetSentToUpper
attr title "packets passed to higher layer, count"
scalar SolutionNetwork.switch18.eth[0].mac passedUpPk:sum(packetBytes) 347274
attr interpolationmode none
attr source packetSentToUpper
attr title "packets passed to higher layer, sum(packetBytes)"
scalar SolutionNetwork.switch18.eth[0].mac packetDropIncorrectlyReceived:count 0
attr interpolationmode none
attr source packetDropReasonIsIncorrectlyReceived(packetDropped)
attr title "packet drop: incorrectly received, count"
scalar SolutionNetwork.switch18.eth[0].mac packetDropIncorrectlyReceived:sum(packetBytes) 0
attr interpolationmode none
attr source packetDropReasonIsIncorrectlyReceived(packetDropped)
attr title "packet drop: incorrectly received, sum(packetBytes)"
scalar SolutionNetwork.switch18.eth[0].mac packetDropInterfaceDown:count 0
attr interpolationmode none
attr source packetDropReasonIsInterfaceDown(packetDropped)
attr title "packet drop: interface down, count"
scalar SolutionNetwork.switch18.eth[0].mac packetDropInterfaceDown:sum(packetBytes) 0
attr interpolationmode none
attr source packetDropReasonIsInterfaceDown(packetDropped)
attr title "packet drop: interface down, sum(packetBytes)"
scalar SolutionNetwork.switch18.eth[0].mac packetDropNotAddressedToUs:count 0
attr interpolationmode none
attr source packetDropReasonIsNotAddressedToUs(packetDropped)
attr title "packet drop: not addressed to us, count"
scalar SolutionNetwork.switch18.eth[0].mac packetDropNotAddressedToUs:sum(packetBytes) 0
attr interpolationmode none
attr source packetDropReasonIsNotAddressedToUs(packetDropped)
attr title "packet drop: not addressed to us, sum(packetBytes)"
scalar SolutionNetwork.switch18.eth[0].mac backoffSlotsGenerated:count 0
attr interpolationmode none
attr title "backoff, count"
scalar SolutionNetwork.switch18.eth[0].mac collision:count 0
attr interpolationmode none
attr title "collision, count"
scalar SolutionNetwork.switch18.eth[0].mac rxPausePkUnits:count 0
attr interpolationmode none
attr title "pause units received, count"
scalar SolutionNetwork.switch18.eth[0].mac rxPausePkUnits:sum 0
attr interpolationmode none
attr title "pause units received, sum"
scalar SolutionNetwork.switch18.eth[0].mac txPausePkUnits:count 0
attr interpolationmode none
attr title "pause units sent, count"
scalar SolutionNetwork.switch18.eth[0].mac txPausePkUnits:sum 0
attr interpolationmode none
attr title "pause units sent, sum"
scalar SolutionNetwork.switch18.eth[0].mac rxPkOk:count 3186
attr interpolationmode none
attr source rxPkOk
attr title "packets received OK, count"
scalar SolutionNetwork.switch18.eth[0].mac rxPkOk:sum(packetBytes) 347274
attr interpolationmode none
attr source rxPkOk
attr title "packets received OK, sum(packetBytes)"
scalar SolutionNetwork.switch18.eth[1].mac.queue packetPopped:count 3186
attr interpolationmode none
attr title "packet popped, count"
scalar SolutionNetwork.switch18.eth[1].mac.queue packetPopped:sum(packetBytes) 347274
attr interpolationmode none
attr title "packet popped, sum(packetBytes)"
statistic SolutionNetwork.switch18.eth[1].mac.queue queueingTime:histogram
field count 3186
field mean 0
field stddev 0
field min 0
field max 0
field sum 0
field sqrsum 0
attr interpolationmode none
attr source queueingTime(packetPopped)
attr title "queueing times, histogram"
attr unit s
bin	-inf	0
bin	-0.5	0
bin	-0.48	0
bin	-0.46	0
bin	-0.44	0
bin	-0.42	0
bin	-0.4	0
bin	-0.38	0
bin	-0.36	0
bin	-0.34	0
bin	-0.32	0
bin	-0.3	0
bin	-0.28	0
bin	-0.26	0
bin	-0.24	0
bin	-0.22	0
bin	-0.2	0
bin	-0.18	0
bin	-0.16	0
bin	-0.14	0
bin	-0.12	0
bin	-0.1	0
bin	-0.08	0
bin	-0.06	0
bin	-0.04	0
bin	-0.02	0
bin	0	3186
bin	0.02	0
bin	0.04	0
bin	0.06	0
bin	0.08	0
bin	0.1	0
bin	0.12	0
bin	0.14	0
bin	0.16	0
bin	0.18	0
bin	0.2	0
bin	0.22	0
bin	0.24	0
bin	0.26	0
bin	0.28	0
bin	0.3	0
bin	0.32	0
bin	0.34	0
bin	0.36	0
bin	0.38	0
bin	0.4	0
bin	0.42	0
bin	0.44	0
bin	0.46	0
bin	0.48	0
bin	0.5	0
scalar SolutionNetwork.switch18.eth[1].mac.queue queueLength:max 1
attr interpolationmode sample-hold
attr source "count(packetPushed) - count(packetPopped) - count(packetRemoved) - count(packetDropped)"
attr title "queue length, max"
scalar SolutionNetwork.switch18.eth[1].mac.queue queueLength:timeavg 0
attr interpolationmode sample-hold
attr source "count(packetPushed) - count(packetPopped) - count(packetRemoved) - count(packetDropped)"
attr title "queue length, timeavg"
scalar SolutionNetwork.switch18.eth[1].mac.queue packetPushed:count 3186
attr interpolationmode none
attr title "packet pushed, count"
scalar SolutionNetwork.switch18.eth[1].mac.queue packetPushed:sum(packetBytes) 347274
attr interpolationmode none
attr title "packet pushed, sum(packetBytes)"
scalar SolutionNetwork.switch18.eth[1].mac.queue packetDropQueueOverflow:count 0
attr interpolationmode none
attr source packetDropReasonIsQueueOverflow(packetDropped)
attr title "packet drops: queue overflow, count"
scalar SolutionNetwork.switch18.eth[1].mac.queue packetDropQueueOverflow:sum(packetBytes) 0
attr interpolationmode none
attr source packetDropReasonIsQueueOverflow(packetDropped)
attr title "packet drops: queue overflow, sum(packetBytes)"
scalar SolutionNetwork.switch18.eth[1].mac.queue packetRemoved:count 0
attr interpolationmode none
attr title "packets removed, count"
scalar SolutionNetwork.switch18.eth[1].mac.queue packetRemoved:sum(packetBytes) 0
attr interpolationmode none
attr title "packets removed, sum(packetBytes)"
scalar SolutionNetwork.switch18.eth[1].mac "simulated time" 180
scalar SolutionNetwork.switch18.eth[1].mac full-duplex 1
scalar SolutionNetwork.switch18.eth[1].mac "frames/sec sent" 17.7
scalar SolutionNetwork.switch18.eth[1].mac "frames/sec rcvd" 17.433333333333
scalar SolutionNetwork.switch18.eth[1].mac "bits/sec sent" 15434.4
scalar SolutionNetwork.switch18.eth[1].mac "bits/sec rcvd" 15201.866666667
scalar SolutionNetwork.switch18.eth[1].mac "rx channel idle (%)" 99.9836824
scalar SolutionNetwork.switch18.eth[1].mac "rx channel utilization (%)" 0.0163176
scalar SolutionNetwork.switch18.eth[1].mac "rx channel collision (%)" 0
scalar SolutionNetwork.switch18.eth[1].mac collisions 0
scalar SolutionNetwork.switch18.eth[1].mac backoffs 0
scalar SolutionNetwork.switch18.eth[1].mac txPk:count 3186
attr interpolationmode none
attr source packetSentToLower
attr title "packets transmitted, count"
scalar SolutionNetwork.switch18.eth[1].mac txPk:sum(packetBytes) 347274
attr interpolationmode none
attr source packetSentToLower
attr title "packets transmitted, sum(packetBytes)"
scalar SolutionNetwork.switch18.eth[1].mac packetReceivedFromUpper:count 3186
attr interpolationmode none
attr source packetReceivedFromUpper
attr title "packet bytes from higher layer, count"
scalar SolutionNetwork.switch18.eth[1].mac packetReceivedFromUpper:sum(packetBytes) 347274
attr interpolationmode none
attr source packetReceivedFromUpper
attr title "packet bytes from higher layer, sum(packetBytes)"
scalar SolutionNetwork.switch18.eth[1].mac passedUpPk:count 3138
attr interpolationmode none
attr source packetSentToUpper
attr title "packets passed to higher layer, count"
scalar SolutionNetwork.switch18.eth[1].mac passedUpPk:sum(packetBytes) 342042
attr interpolationmode none
attr source packetSentToUpper
attr title "packets passed to higher layer, sum(packetBytes)"
scalar SolutionNetwork.switch18.eth[1].mac packetDropIncorrectlyReceived:count 0
attr interpolationmode none
attr source packetDropReasonIsIncorrectlyReceived(packetDropped)
attr title "packet drop: incorrectly received, count"
scalar SolutionNetwork.switch18.eth[1].mac packetDropIncorrectlyReceived:sum(packetBytes) 0
attr interpolationmode none
attr source packetDropReasonIsIncorrectlyReceived(packetDropped)
attr title "packet drop: incorrectly received, sum(packetBytes)"
scalar SolutionNetwork.switch18.eth[1].mac packetDropInterfaceDown:count 0
attr interpolationmode none
attr source packetDropReasonIsInterfaceDown(packetDropped)
attr title "packet drop: interface down, count"
scalar SolutionNetwork.switch18.eth[1].mac packetDropInterfaceDown:sum(packetBytes) 0
attr interpolationmode none
attr source packetDropReasonIsInterfaceDown(packetDropped)
attr title "packet drop: interface down, sum(packetBytes)"
scalar SolutionNetwork.switch18.eth[1].mac packetDropNotAddressedToUs:count 0
attr interpolationmode none
attr source packetDropReasonIsNotAddressedToUs(packetDropped)
attr title "packet drop: not addressed to us, count"
scalar SolutionNetwork.switch18.eth[1].mac packetDropNotAddressedToUs:sum(packetBytes) 0
attr interpolationmode none
attr source packetDropReasonIsNotAddressedToUs(packetDropped)
attr title "packet drop: not addressed to us, sum(packetBytes)"
scalar SolutionNetwork.switch18.eth[1].mac backoffSlotsGenerated:count 0
attr interpolationmode none
attr title "backoff, count"
scalar SolutionNetwork.switch18.eth[1].mac collision:count 0
attr interpolationmode none
attr title "collision, count"
scalar SolutionNetwork.switch18.eth[1].mac rxPausePkUnits:count 0
attr interpolationmode none
attr title "pause units received, count"
scalar SolutionNetwork.switch18.eth[1].mac rxPausePkUnits:sum 0
attr interpolationmode none
attr title "pause units received, sum"
scalar SolutionNetwork.switch18.eth[1].mac txPausePkUnits:count 0
attr interpolationmode none
attr title "pause units sent, count"
scalar SolutionNetwork.switch18.eth[1].mac txPausePkUnits:sum 0
attr interpolationmode none
attr title "pause units sent, sum"
scalar SolutionNetwork.switch18.eth[1].mac rxPkOk:count 3138
attr interpolationmode none
attr source rxPkOk
attr title "packets received OK, count"
scalar SolutionNetwork.switch18.eth[1].mac rxPkOk:sum(packetBytes) 342042
attr interpolationmode none
attr source rxPkOk
attr title "packets received OK, sum(packetBytes)"
scalar SolutionNetwork.switch18.encap pauseSent:count 0
attr title "pause sent, count"
scalar SolutionNetwork.switch18.encap pauseSent:sum 0
attr title "pause sent, sum"
scalar SolutionNetwork.switch18.encap decapPk:count 0
attr interpolationmode none
attr source decapPk
attr title "packets decapsulated, count"
scalar SolutionNetwork.switch18.encap decapPk:sum(packetBytes) 0
attr interpolationmode none
attr source decapPk
attr title "packets decapsulated, sum(packetBytes)"
scalar SolutionNetwork.switch18.encap encapPk:count 0
attr interpolationmode none
attr source encapPk
attr title "packets encapsulated, count"
scalar SolutionNetwork.switch18.encap encapPk:sum(packetBytes) 0
attr interpolationmode none
attr source encapPk
attr title "packets encapsulated, sum(packetBytes)"

