version 2
run Default-0-20210620-17:24:04-1184
attr configname Default
attr datetime 20210620-17:24:04
attr experiment Default
attr inifile omnetpp.ini
attr iterationvars ""
attr iterationvarsf ""
attr measurement ""
attr network SolutionNetwork
attr processid 1184
attr repetition 0
attr replication #0
attr resultdir results
attr runnumber 0
attr seedset 1184
param *.playgroundSizeX 2600m
param *.playgroundSizeY 2500m
param *.playgroundSizeZ 50m
param *.annotations.draw true
param *.obstacles.debug false
param *.manager.updateInterval 1s
param *.manager.host "\"localhost\""
param *.manager.port 9999
param *.manager.autoShutdown true
param *.manager.launchConfig "xmldoc(\"Solutions.launchd.xml\")"
param *.rsu[0].mobility.x 250
param *.rsu[0].mobility.y 100
param *.rsu[0].mobility.z 0
param *.rsu[1].mobility.x 750
param *.rsu[1].mobility.y 100
param *.rsu[1].mobility.z 0
param *.rsu[2].mobility.x 1250
param *.rsu[2].mobility.y 100
param *.rsu[2].mobility.z 0
param *.rsu[3].mobility.x 1750
param *.rsu[3].mobility.y 100
param *.rsu[3].mobility.z 0
param *.rsu[4].mobility.x 2250
param *.rsu[4].mobility.y 100
param *.rsu[4].mobility.z 0
param *.rsu[*].applType "\"RSUClusterAppOriginal\""
param *.rsu[*].appl.headerLength "80 bit"
param *.rsu[*].appl.sendBeacons true
param *.rsu[*].appl.dataOnSch false
param *.rsu[*].appl.beaconInterval 0s
param *.rsu[*].appl.beaconUserPriority 7
param *.rsu[*].appl.dataUserPriority 5
param *.rsu[*].nic.phy80211p.antennaOffsetZ "0 m"
param *.connectionManager.sendDirect true
param *.connectionManager.maxInterfDist 2600m
param *.connectionManager.drawMaxIntfDist false
param *.**.nic.mac1609_4.useServiceChannel false
param *.**.nic.mac1609_4.txPower 50mW
param *.**.nic.mac1609_4.bitrate 12Mbps
param *.**.nic.phy80211p.minPowerLevel -110dBm
param *.**.nic.phy80211p.allowTxDuringRx true
param *.**.nic.phy80211p.useNoiseFloor true
param *.**.nic.phy80211p.noiseFloor -98dBm
param *.**.nic.phy80211p.decider "xmldoc(\"config.xml\")"
param *.**.nic.phy80211p.analogueModels "xmldoc(\"config.xml\")"
param *.**.nic.phy80211p.usePropagationDelay true
param *.**.nic.phy80211p.antenna "xmldoc(\"antenna.xml\", \"/root/Antenna[@id='monopole']\")"
param *.node[*].nic.phy80211p.antennaOffsetY "0 m"
param *.node[*].nic.phy80211p.antennaOffsetZ "1.895 m"
param *.node[*].applType "\"VehicleApp\""
param *.node[*].appl.headerLength "80 bit"
param *.node[*].appl.sendBeacons false
param *.node[*].appl.dataOnSch false
param *.node[*].appl.beaconInterval 1s
param *.node[*].veinsmobility.x 0
param *.node[*].veinsmobility.y 0
param *.node[*].veinsmobility.z 0
param *.node[*].veinsmobility.setHostSpeed false
param *.node[*0].veinsmobility.accidentCount 0
param *.node[*0].veinsmobility.accidentStart 73s
param *.node[*0].veinsmobility.accidentDuration 50s
param *.ES0.srv.ClockFrequency 4
param *.ES1.srv.ClockFrequency 5
param *.ES2.srv.ClockFrequency 7
param *.ES3.srv.ClockFrequency 5
param *.ES4.srv.ClockFrequency 4
param *.ES5.srv.ClockFrequency 7
param *.ES6.srv.ClockFrequency 5
param *.ES7.srv.ClockFrequency 4

vector 0 SolutionNetwork.rsu[0].eth.encap encapPk:vector(packetBytes) ETV
attr interpolationmode none
attr source encapPk
attr title "packets encapsulated, vector(packetBytes)"
vector 1 SolutionNetwork.rsu[1].eth.encap encapPk:vector(packetBytes) ETV
attr interpolationmode none
attr source encapPk
attr title "packets encapsulated, vector(packetBytes)"
vector 2 SolutionNetwork.rsu[2].eth.encap encapPk:vector(packetBytes) ETV
attr interpolationmode none
attr source encapPk
attr title "packets encapsulated, vector(packetBytes)"
vector 3 SolutionNetwork.rsu[3].eth.encap encapPk:vector(packetBytes) ETV
attr interpolationmode none
attr source encapPk
attr title "packets encapsulated, vector(packetBytes)"
vector 4 SolutionNetwork.rsu[4].eth.encap encapPk:vector(packetBytes) ETV
attr interpolationmode none
attr source encapPk
attr title "packets encapsulated, vector(packetBytes)"
vector 5 SolutionNetwork.rsu[0].eth.mac packetReceivedFromUpper:vector(packetBytes) ETV
attr interpolationmode none
attr source packetReceivedFromUpper
attr title "packet bytes from higher layer, vector(packetBytes)"
vector 6 SolutionNetwork.rsu[0].eth.mac.queue packetPushed:vector(packetBytes) ETV
attr interpolationmode none
attr title "packet pushed, vector(packetBytes)"
vector 7 SolutionNetwork.rsu[0].eth.mac.queue queueLength:vector ETV
attr interpolationmode sample-hold
attr source "count(packetPushed) - count(packetPopped) - count(packetRemoved) - count(packetDropped)"
attr title "queue length, vector"
vector 8 SolutionNetwork.rsu[0].eth.mac.queue packetPopped:vector(packetBytes) ETV
attr interpolationmode none
attr title "packet popped, vector(packetBytes)"
vector 9 SolutionNetwork.rsu[0].eth.mac.queue queueingTime:vector ETV
attr interpolationmode none
attr source queueingTime(packetPopped)
attr title "queueing times, vector"
attr unit s
vector 10 SolutionNetwork.rsu[1].eth.mac packetReceivedFromUpper:vector(packetBytes) ETV
attr interpolationmode none
attr source packetReceivedFromUpper
attr title "packet bytes from higher layer, vector(packetBytes)"
vector 11 SolutionNetwork.rsu[1].eth.mac.queue packetPushed:vector(packetBytes) ETV
attr interpolationmode none
attr title "packet pushed, vector(packetBytes)"
vector 12 SolutionNetwork.rsu[1].eth.mac.queue queueLength:vector ETV
attr interpolationmode sample-hold
attr source "count(packetPushed) - count(packetPopped) - count(packetRemoved) - count(packetDropped)"
attr title "queue length, vector"
vector 13 SolutionNetwork.rsu[1].eth.mac.queue packetPopped:vector(packetBytes) ETV
attr interpolationmode none
attr title "packet popped, vector(packetBytes)"
vector 14 SolutionNetwork.rsu[1].eth.mac.queue queueingTime:vector ETV
attr interpolationmode none
attr source queueingTime(packetPopped)
attr title "queueing times, vector"
attr unit s
vector 15 SolutionNetwork.rsu[2].eth.mac packetReceivedFromUpper:vector(packetBytes) ETV
attr interpolationmode none
attr source packetReceivedFromUpper
attr title "packet bytes from higher layer, vector(packetBytes)"
vector 16 SolutionNetwork.rsu[2].eth.mac.queue packetPushed:vector(packetBytes) ETV
attr interpolationmode none
attr title "packet pushed, vector(packetBytes)"
vector 17 SolutionNetwork.rsu[2].eth.mac.queue queueLength:vector ETV
attr interpolationmode sample-hold
attr source "count(packetPushed) - count(packetPopped) - count(packetRemoved) - count(packetDropped)"
attr title "queue length, vector"
vector 18 SolutionNetwork.rsu[2].eth.mac.queue packetPopped:vector(packetBytes) ETV
attr interpolationmode none
attr title "packet popped, vector(packetBytes)"
vector 19 SolutionNetwork.rsu[2].eth.mac.queue queueingTime:vector ETV
attr interpolationmode none
attr source queueingTime(packetPopped)
attr title "queueing times, vector"
attr unit s
vector 20 SolutionNetwork.rsu[3].eth.mac packetReceivedFromUpper:vector(packetBytes) ETV
attr interpolationmode none
attr source packetReceivedFromUpper
attr title "packet bytes from higher layer, vector(packetBytes)"
vector 21 SolutionNetwork.rsu[3].eth.mac.queue packetPushed:vector(packetBytes) ETV
attr interpolationmode none
attr title "packet pushed, vector(packetBytes)"
vector 22 SolutionNetwork.rsu[3].eth.mac.queue queueLength:vector ETV
attr interpolationmode sample-hold
attr source "count(packetPushed) - count(packetPopped) - count(packetRemoved) - count(packetDropped)"
attr title "queue length, vector"
vector 23 SolutionNetwork.rsu[3].eth.mac.queue packetPopped:vector(packetBytes) ETV
attr interpolationmode none
attr title "packet popped, vector(packetBytes)"
vector 24 SolutionNetwork.rsu[3].eth.mac.queue queueingTime:vector ETV
attr interpolationmode none
attr source queueingTime(packetPopped)
attr title "queueing times, vector"
attr unit s
vector 25 SolutionNetwork.rsu[4].eth.mac packetReceivedFromUpper:vector(packetBytes) ETV
attr interpolationmode none
attr source packetReceivedFromUpper
attr title "packet bytes from higher layer, vector(packetBytes)"
vector 26 SolutionNetwork.rsu[4].eth.mac.queue packetPushed:vector(packetBytes) ETV
attr interpolationmode none
attr title "packet pushed, vector(packetBytes)"
vector 27 SolutionNetwork.rsu[4].eth.mac.queue queueLength:vector ETV
attr interpolationmode sample-hold
attr source "count(packetPushed) - count(packetPopped) - count(packetRemoved) - count(packetDropped)"
attr title "queue length, vector"
vector 28 SolutionNetwork.rsu[4].eth.mac.queue packetPopped:vector(packetBytes) ETV
attr interpolationmode none
attr title "packet popped, vector(packetBytes)"
vector 29 SolutionNetwork.rsu[4].eth.mac.queue queueingTime:vector ETV
attr interpolationmode none
attr source queueingTime(packetPopped)
attr title "queueing times, vector"
attr unit s
vector 30 SolutionNetwork.rsu[0].eth.mac txPk:vector(packetBytes) ETV
attr interpolationmode none
attr source packetSentToLower
attr title "packets transmitted, vector(packetBytes)"
vector 31 SolutionNetwork.rsu[1].eth.mac txPk:vector(packetBytes) ETV
attr interpolationmode none
attr source packetSentToLower
attr title "packets transmitted, vector(packetBytes)"
vector 32 SolutionNetwork.rsu[2].eth.mac txPk:vector(packetBytes) ETV
attr interpolationmode none
attr source packetSentToLower
attr title "packets transmitted, vector(packetBytes)"
vector 33 SolutionNetwork.rsu[3].eth.mac txPk:vector(packetBytes) ETV
attr interpolationmode none
attr source packetSentToLower
attr title "packets transmitted, vector(packetBytes)"
vector 34 SolutionNetwork.rsu[4].eth.mac txPk:vector(packetBytes) ETV
attr interpolationmode none
attr source packetSentToLower
attr title "packets transmitted, vector(packetBytes)"
vector 35 SolutionNetwork.switch1.eth[0].mac rxPkOk:vector(packetBytes) ETV
attr interpolationmode none
attr source rxPkOk
attr title "packets received OK, vector(packetBytes)"
vector 36 SolutionNetwork.switch1.eth[0].mac passedUpPk:vector(packetBytes) ETV
attr interpolationmode none
attr source packetSentToUpper
attr title "packets passed to higher layer, vector(packetBytes)"
vector 37 SolutionNetwork.switch5.eth[0].mac rxPkOk:vector(packetBytes) ETV
attr interpolationmode none
attr source rxPkOk
attr title "packets received OK, vector(packetBytes)"
vector 38 SolutionNetwork.switch5.eth[0].mac passedUpPk:vector(packetBytes) ETV
attr interpolationmode none
attr source packetSentToUpper
attr title "packets passed to higher layer, vector(packetBytes)"
vector 39 SolutionNetwork.switch6.eth[0].mac rxPkOk:vector(packetBytes) ETV
attr interpolationmode none
attr source rxPkOk
attr title "packets received OK, vector(packetBytes)"
vector 40 SolutionNetwork.switch6.eth[0].mac passedUpPk:vector(packetBytes) ETV
attr interpolationmode none
attr source packetSentToUpper
attr title "packets passed to higher layer, vector(packetBytes)"
vector 41 SolutionNetwork.switch10.eth[0].mac rxPkOk:vector(packetBytes) ETV
attr interpolationmode none
attr source rxPkOk
attr title "packets received OK, vector(packetBytes)"
vector 42 SolutionNetwork.switch10.eth[0].mac passedUpPk:vector(packetBytes) ETV
attr interpolationmode none
attr source packetSentToUpper
attr title "packets passed to higher layer, vector(packetBytes)"
vector 43 SolutionNetwork.switch15.eth[3].mac rxPkOk:vector(packetBytes) ETV
attr interpolationmode none
attr source rxPkOk
attr title "packets received OK, vector(packetBytes)"
vector 44 SolutionNetwork.switch15.eth[3].mac passedUpPk:vector(packetBytes) ETV
attr interpolationmode none
attr source packetSentToUpper
attr title "packets passed to higher layer, vector(packetBytes)"
vector 45 SolutionNetwork.switch1.eth[1].mac packetReceivedFromUpper:vector(packetBytes) ETV
attr interpolationmode none
attr source packetReceivedFromUpper
attr title "packet bytes from higher layer, vector(packetBytes)"
vector 46 SolutionNetwork.switch1.eth[1].mac.queue packetPushed:vector(packetBytes) ETV
attr interpolationmode none
attr title "packet pushed, vector(packetBytes)"
vector 47 SolutionNetwork.switch1.eth[1].mac.queue queueLength:vector ETV
attr interpolationmode sample-hold
attr source "count(packetPushed) - count(packetPopped) - count(packetRemoved) - count(packetDropped)"
attr title "queue length, vector"
vector 48 SolutionNetwork.switch1.eth[1].mac.queue packetPopped:vector(packetBytes) ETV
attr interpolationmode none
attr title "packet popped, vector(packetBytes)"
vector 49 SolutionNetwork.switch1.eth[1].mac.queue queueingTime:vector ETV
attr interpolationmode none
attr source queueingTime(packetPopped)
attr title "queueing times, vector"
attr unit s
vector 50 SolutionNetwork.switch1.eth[2].mac packetReceivedFromUpper:vector(packetBytes) ETV
attr interpolationmode none
attr source packetReceivedFromUpper
attr title "packet bytes from higher layer, vector(packetBytes)"
vector 51 SolutionNetwork.switch1.eth[2].mac.queue packetPushed:vector(packetBytes) ETV
attr interpolationmode none
attr title "packet pushed, vector(packetBytes)"
vector 52 SolutionNetwork.switch1.eth[2].mac.queue queueLength:vector ETV
attr interpolationmode sample-hold
attr source "count(packetPushed) - count(packetPopped) - count(packetRemoved) - count(packetDropped)"
attr title "queue length, vector"
vector 53 SolutionNetwork.switch1.eth[2].mac.queue packetPopped:vector(packetBytes) ETV
attr interpolationmode none
attr title "packet popped, vector(packetBytes)"
vector 54 SolutionNetwork.switch1.eth[2].mac.queue queueingTime:vector ETV
attr interpolationmode none
attr source queueingTime(packetPopped)
attr title "queueing times, vector"
attr unit s
vector 55 SolutionNetwork.switch5.eth[1].mac packetReceivedFromUpper:vector(packetBytes) ETV
attr interpolationmode none
attr source packetReceivedFromUpper
attr title "packet bytes from higher layer, vector(packetBytes)"
vector 56 SolutionNetwork.switch5.eth[1].mac.queue packetPushed:vector(packetBytes) ETV
attr interpolationmode none
attr title "packet pushed, vector(packetBytes)"
vector 57 SolutionNetwork.switch5.eth[1].mac.queue queueLength:vector ETV
attr interpolationmode sample-hold
attr source "count(packetPushed) - count(packetPopped) - count(packetRemoved) - count(packetDropped)"
attr title "queue length, vector"
vector 58 SolutionNetwork.switch5.eth[1].mac.queue packetPopped:vector(packetBytes) ETV
attr interpolationmode none
attr title "packet popped, vector(packetBytes)"
vector 59 SolutionNetwork.switch5.eth[1].mac.queue queueingTime:vector ETV
attr interpolationmode none
attr source queueingTime(packetPopped)
attr title "queueing times, vector"
attr unit s
vector 60 SolutionNetwork.switch5.eth[2].mac packetReceivedFromUpper:vector(packetBytes) ETV
attr interpolationmode none
attr source packetReceivedFromUpper
attr title "packet bytes from higher layer, vector(packetBytes)"
vector 61 SolutionNetwork.switch5.eth[2].mac.queue packetPushed:vector(packetBytes) ETV
attr interpolationmode none
attr title "packet pushed, vector(packetBytes)"
vector 62 SolutionNetwork.switch5.eth[2].mac.queue queueLength:vector ETV
attr interpolationmode sample-hold
attr source "count(packetPushed) - count(packetPopped) - count(packetRemoved) - count(packetDropped)"
attr title "queue length, vector"
vector 63 SolutionNetwork.switch5.eth[2].mac.queue packetPopped:vector(packetBytes) ETV
attr interpolationmode none
attr title "packet popped, vector(packetBytes)"
vector 64 SolutionNetwork.switch5.eth[2].mac.queue queueingTime:vector ETV
attr interpolationmode none
attr source queueingTime(packetPopped)
attr title "queueing times, vector"
attr unit s
vector 65 SolutionNetwork.switch6.eth[1].mac packetReceivedFromUpper:vector(packetBytes) ETV
attr interpolationmode none
attr source packetReceivedFromUpper
attr title "packet bytes from higher layer, vector(packetBytes)"
vector 66 SolutionNetwork.switch6.eth[1].mac.queue packetPushed:vector(packetBytes) ETV
attr interpolationmode none
attr title "packet pushed, vector(packetBytes)"
vector 67 SolutionNetwork.switch6.eth[1].mac.queue queueLength:vector ETV
attr interpolationmode sample-hold
attr source "count(packetPushed) - count(packetPopped) - count(packetRemoved) - count(packetDropped)"
attr title "queue length, vector"
vector 68 SolutionNetwork.switch6.eth[1].mac.queue packetPopped:vector(packetBytes) ETV
attr interpolationmode none
attr title "packet popped, vector(packetBytes)"
vector 69 SolutionNetwork.switch6.eth[1].mac.queue queueingTime:vector ETV
attr interpolationmode none
attr source queueingTime(packetPopped)
attr title "queueing times, vector"
attr unit s
vector 70 SolutionNetwork.switch6.eth[2].mac packetReceivedFromUpper:vector(packetBytes) ETV
attr interpolationmode none
attr source packetReceivedFromUpper
attr title "packet bytes from higher layer, vector(packetBytes)"
vector 71 SolutionNetwork.switch6.eth[2].mac.queue packetPushed:vector(packetBytes) ETV
attr interpolationmode none
attr title "packet pushed, vector(packetBytes)"
vector 72 SolutionNetwork.switch6.eth[2].mac.queue queueLength:vector ETV
attr interpolationmode sample-hold
attr source "count(packetPushed) - count(packetPopped) - count(packetRemoved) - count(packetDropped)"
attr title "queue length, vector"
vector 73 SolutionNetwork.switch6.eth[2].mac.queue packetPopped:vector(packetBytes) ETV
attr interpolationmode none
attr title "packet popped, vector(packetBytes)"
vector 74 SolutionNetwork.switch6.eth[2].mac.queue queueingTime:vector ETV
attr interpolationmode none
attr source queueingTime(packetPopped)
attr title "queueing times, vector"
attr unit s
vector 75 SolutionNetwork.switch6.eth[3].mac packetReceivedFromUpper:vector(packetBytes) ETV
attr interpolationmode none
attr source packetReceivedFromUpper
attr title "packet bytes from higher layer, vector(packetBytes)"
vector 76 SolutionNetwork.switch6.eth[3].mac.queue packetPushed:vector(packetBytes) ETV
attr interpolationmode none
attr title "packet pushed, vector(packetBytes)"
vector 77 SolutionNetwork.switch6.eth[3].mac.queue queueLength:vector ETV
attr interpolationmode sample-hold
attr source "count(packetPushed) - count(packetPopped) - count(packetRemoved) - count(packetDropped)"
attr title "queue length, vector"
vector 78 SolutionNetwork.switch6.eth[3].mac.queue packetPopped:vector(packetBytes) ETV
attr interpolationmode none
attr title "packet popped, vector(packetBytes)"
vector 79 SolutionNetwork.switch6.eth[3].mac.queue queueingTime:vector ETV
attr interpolationmode none
attr source queueingTime(packetPopped)
attr title "queueing times, vector"
attr unit s
vector 80 SolutionNetwork.switch10.eth[1].mac packetReceivedFromUpper:vector(packetBytes) ETV
attr interpolationmode none
attr source packetReceivedFromUpper
attr title "packet bytes from higher layer, vector(packetBytes)"
vector 81 SolutionNetwork.switch10.eth[1].mac.queue packetPushed:vector(packetBytes) ETV
attr interpolationmode none
attr title "packet pushed, vector(packetBytes)"
vector 82 SolutionNetwork.switch10.eth[1].mac.queue queueLength:vector ETV
attr interpolationmode sample-hold
attr source "count(packetPushed) - count(packetPopped) - count(packetRemoved) - count(packetDropped)"
attr title "queue length, vector"
vector 83 SolutionNetwork.switch10.eth[1].mac.queue packetPopped:vector(packetBytes) ETV
attr interpolationmode none
attr title "packet popped, vector(packetBytes)"
vector 84 SolutionNetwork.switch10.eth[1].mac.queue queueingTime:vector ETV
attr interpolationmode none
attr source queueingTime(packetPopped)
attr title "queueing times, vector"
attr unit s
vector 85 SolutionNetwork.switch10.eth[2].mac packetReceivedFromUpper:vector(packetBytes) ETV
attr interpolationmode none
attr source packetReceivedFromUpper
attr title "packet bytes from higher layer, vector(packetBytes)"
vector 86 SolutionNetwork.switch10.eth[2].mac.queue packetPushed:vector(packetBytes) ETV
attr interpolationmode none
attr title "packet pushed, vector(packetBytes)"
vector 87 SolutionNetwork.switch10.eth[2].mac.queue queueLength:vector ETV
attr interpolationmode sample-hold
attr source "count(packetPushed) - count(packetPopped) - count(packetRemoved) - count(packetDropped)"
attr title "queue length, vector"
vector 88 SolutionNetwork.switch10.eth[2].mac.queue packetPopped:vector(packetBytes) ETV
attr interpolationmode none
attr title "packet popped, vector(packetBytes)"
vector 89 SolutionNetwork.switch10.eth[2].mac.queue queueingTime:vector ETV
attr interpolationmode none
attr source queueingTime(packetPopped)
attr title "queueing times, vector"
attr unit s
vector 90 SolutionNetwork.switch10.eth[3].mac packetReceivedFromUpper:vector(packetBytes) ETV
attr interpolationmode none
attr source packetReceivedFromUpper
attr title "packet bytes from higher layer, vector(packetBytes)"
vector 91 SolutionNetwork.switch10.eth[3].mac.queue packetPushed:vector(packetBytes) ETV
attr interpolationmode none
attr title "packet pushed, vector(packetBytes)"
vector 92 SolutionNetwork.switch10.eth[3].mac.queue queueLength:vector ETV
attr interpolationmode sample-hold
attr source "count(packetPushed) - count(packetPopped) - count(packetRemoved) - count(packetDropped)"
attr title "queue length, vector"
vector 93 SolutionNetwork.switch10.eth[3].mac.queue packetPopped:vector(packetBytes) ETV
attr interpolationmode none
attr title "packet popped, vector(packetBytes)"
vector 94 SolutionNetwork.switch10.eth[3].mac.queue queueingTime:vector ETV
attr interpolationmode none
attr source queueingTime(packetPopped)
attr title "queueing times, vector"
attr unit s
vector 95 SolutionNetwork.switch10.eth[4].mac packetReceivedFromUpper:vector(packetBytes) ETV
attr interpolationmode none
attr source packetReceivedFromUpper
attr title "packet bytes from higher layer, vector(packetBytes)"
vector 96 SolutionNetwork.switch10.eth[4].mac.queue packetPushed:vector(packetBytes) ETV
attr interpolationmode none
attr title "packet pushed, vector(packetBytes)"
vector 97 SolutionNetwork.switch10.eth[4].mac.queue queueLength:vector ETV
attr interpolationmode sample-hold
attr source "count(packetPushed) - count(packetPopped) - count(packetRemoved) - count(packetDropped)"
attr title "queue length, vector"
vector 98 SolutionNetwork.switch10.eth[4].mac.queue packetPopped:vector(packetBytes) ETV
attr interpolationmode none
attr title "packet popped, vector(packetBytes)"
vector 99 SolutionNetwork.switch10.eth[4].mac.queue queueingTime:vector ETV
attr interpolationmode none
attr source queueingTime(packetPopped)
attr title "queueing times, vector"
attr unit s
vector 100 SolutionNetwork.switch15.eth[0].mac packetReceivedFromUpper:vector(packetBytes) ETV
attr interpolationmode none
attr source packetReceivedFromUpper
attr title "packet bytes from higher layer, vector(packetBytes)"
vector 101 SolutionNetwork.switch15.eth[0].mac.queue packetPushed:vector(packetBytes) ETV
attr interpolationmode none
attr title "packet pushed, vector(packetBytes)"
vector 102 SolutionNetwork.switch15.eth[0].mac.queue queueLength:vector ETV
attr interpolationmode sample-hold
attr source "count(packetPushed) - count(packetPopped) - count(packetRemoved) - count(packetDropped)"
attr title "queue length, vector"
vector 103 SolutionNetwork.switch15.eth[0].mac.queue packetPopped:vector(packetBytes) ETV
attr interpolationmode none
attr title "packet popped, vector(packetBytes)"
vector 104 SolutionNetwork.switch15.eth[0].mac.queue queueingTime:vector ETV
attr interpolationmode none
attr source queueingTime(packetPopped)
attr title "queueing times, vector"
attr unit s
vector 105 SolutionNetwork.switch15.eth[1].mac packetReceivedFromUpper:vector(packetBytes) ETV
attr interpolationmode none
attr source packetReceivedFromUpper
attr title "packet bytes from higher layer, vector(packetBytes)"
vector 106 SolutionNetwork.switch15.eth[1].mac.queue packetPushed:vector(packetBytes) ETV
attr interpolationmode none
attr title "packet pushed, vector(packetBytes)"
vector 107 SolutionNetwork.switch15.eth[1].mac.queue queueLength:vector ETV
attr interpolationmode sample-hold
attr source "count(packetPushed) - count(packetPopped) - count(packetRemoved) - count(packetDropped)"
attr title "queue length, vector"
vector 108 SolutionNetwork.switch15.eth[1].mac.queue packetPopped:vector(packetBytes) ETV
attr interpolationmode none
attr title "packet popped, vector(packetBytes)"
vector 109 SolutionNetwork.switch15.eth[1].mac.queue queueingTime:vector ETV
attr interpolationmode none
attr source queueingTime(packetPopped)
attr title "queueing times, vector"
attr unit s
vector 110 SolutionNetwork.switch15.eth[2].mac packetReceivedFromUpper:vector(packetBytes) ETV
attr interpolationmode none
attr source packetReceivedFromUpper
attr title "packet bytes from higher layer, vector(packetBytes)"
vector 111 SolutionNetwork.switch15.eth[2].mac.queue packetPushed:vector(packetBytes) ETV
attr interpolationmode none
attr title "packet pushed, vector(packetBytes)"
vector 112 SolutionNetwork.switch15.eth[2].mac.queue queueLength:vector ETV
attr interpolationmode sample-hold
attr source "count(packetPushed) - count(packetPopped) - count(packetRemoved) - count(packetDropped)"
attr title "queue length, vector"
vector 113 SolutionNetwork.switch15.eth[2].mac.queue packetPopped:vector(packetBytes) ETV
attr interpolationmode none
attr title "packet popped, vector(packetBytes)"
vector 114 SolutionNetwork.switch15.eth[2].mac.queue queueingTime:vector ETV
attr interpolationmode none
attr source queueingTime(packetPopped)
attr title "queueing times, vector"
attr unit s
vector 115 SolutionNetwork.switch1.eth[1].mac txPk:vector(packetBytes) ETV
attr interpolationmode none
attr source packetSentToLower
attr title "packets transmitted, vector(packetBytes)"
vector 116 SolutionNetwork.switch1.eth[2].mac txPk:vector(packetBytes) ETV
attr interpolationmode none
attr source packetSentToLower
attr title "packets transmitted, vector(packetBytes)"
vector 117 SolutionNetwork.switch5.eth[1].mac txPk:vector(packetBytes) ETV
attr interpolationmode none
attr source packetSentToLower
attr title "packets transmitted, vector(packetBytes)"
vector 118 SolutionNetwork.switch5.eth[2].mac txPk:vector(packetBytes) ETV
attr interpolationmode none
attr source packetSentToLower
attr title "packets transmitted, vector(packetBytes)"
vector 119 SolutionNetwork.switch6.eth[1].mac txPk:vector(packetBytes) ETV
attr interpolationmode none
attr source packetSentToLower
attr title "packets transmitted, vector(packetBytes)"
vector 120 SolutionNetwork.switch6.eth[2].mac txPk:vector(packetBytes) ETV
attr interpolationmode none
attr source packetSentToLower
attr title "packets transmitted, vector(packetBytes)"
vector 121 SolutionNetwork.switch6.eth[3].mac txPk:vector(packetBytes) ETV
attr interpolationmode none
attr source packetSentToLower
attr title "packets transmitted, vector(packetBytes)"
vector 122 SolutionNetwork.switch10.eth[1].mac txPk:vector(packetBytes) ETV
attr interpolationmode none
attr source packetSentToLower
attr title "packets transmitted, vector(packetBytes)"
vector 123 SolutionNetwork.switch10.eth[2].mac txPk:vector(packetBytes) ETV
attr interpolationmode none
attr source packetSentToLower
attr title "packets transmitted, vector(packetBytes)"
vector 124 SolutionNetwork.switch10.eth[3].mac txPk:vector(packetBytes) ETV
attr interpolationmode none
attr source packetSentToLower
attr title "packets transmitted, vector(packetBytes)"
vector 125 SolutionNetwork.switch10.eth[4].mac txPk:vector(packetBytes) ETV
attr interpolationmode none
attr source packetSentToLower
attr title "packets transmitted, vector(packetBytes)"
vector 126 SolutionNetwork.switch15.eth[0].mac txPk:vector(packetBytes) ETV
attr interpolationmode none
attr source packetSentToLower
attr title "packets transmitted, vector(packetBytes)"
vector 127 SolutionNetwork.switch15.eth[1].mac txPk:vector(packetBytes) ETV
attr interpolationmode none
attr source packetSentToLower
attr title "packets transmitted, vector(packetBytes)"
vector 128 SolutionNetwork.switch15.eth[2].mac txPk:vector(packetBytes) ETV
attr interpolationmode none
attr source packetSentToLower
attr title "packets transmitted, vector(packetBytes)"
vector 129 SolutionNetwork.switch2.eth[0].mac rxPkOk:vector(packetBytes) ETV
attr interpolationmode none
attr source rxPkOk
attr title "packets received OK, vector(packetBytes)"
vector 130 SolutionNetwork.switch2.eth[0].mac passedUpPk:vector(packetBytes) ETV
attr interpolationmode none
attr source packetSentToUpper
attr title "packets passed to higher layer, vector(packetBytes)"
vector 131 SolutionNetwork.switch3.eth[0].mac rxPkOk:vector(packetBytes) ETV
attr interpolationmode none
attr source rxPkOk
attr title "packets received OK, vector(packetBytes)"
vector 132 SolutionNetwork.switch3.eth[0].mac passedUpPk:vector(packetBytes) ETV
attr interpolationmode none
attr source packetSentToUpper
attr title "packets passed to higher layer, vector(packetBytes)"
vector 133 SolutionNetwork.switch3.eth[2].mac rxPkOk:vector(packetBytes) ETV
attr interpolationmode none
attr source rxPkOk
attr title "packets received OK, vector(packetBytes)"
vector 134 SolutionNetwork.switch3.eth[2].mac passedUpPk:vector(packetBytes) ETV
attr interpolationmode none
attr source packetSentToUpper
attr title "packets passed to higher layer, vector(packetBytes)"
vector 135 SolutionNetwork.switch6.eth[1].mac rxPkOk:vector(packetBytes) ETV
attr interpolationmode none
attr source rxPkOk
attr title "packets received OK, vector(packetBytes)"
vector 136 SolutionNetwork.switch6.eth[1].mac passedUpPk:vector(packetBytes) ETV
attr interpolationmode none
attr source packetSentToUpper
attr title "packets passed to higher layer, vector(packetBytes)"
vector 137 SolutionNetwork.switch5.eth[2].mac rxPkOk:vector(packetBytes) ETV
attr interpolationmode none
attr source rxPkOk
attr title "packets received OK, vector(packetBytes)"
vector 138 SolutionNetwork.switch5.eth[2].mac passedUpPk:vector(packetBytes) ETV
attr interpolationmode none
attr source packetSentToUpper
attr title "packets passed to higher layer, vector(packetBytes)"
vector 139 SolutionNetwork.switch7.eth[0].mac rxPkOk:vector(packetBytes) ETV
attr interpolationmode none
attr source rxPkOk
attr title "packets received OK, vector(packetBytes)"
vector 140 SolutionNetwork.switch7.eth[0].mac passedUpPk:vector(packetBytes) ETV
attr interpolationmode none
attr source packetSentToUpper
attr title "packets passed to higher layer, vector(packetBytes)"
vector 141 SolutionNetwork.switch8.eth[0].mac rxPkOk:vector(packetBytes) ETV
attr interpolationmode none
attr source rxPkOk
attr title "packets received OK, vector(packetBytes)"
vector 142 SolutionNetwork.switch8.eth[0].mac passedUpPk:vector(packetBytes) ETV
attr interpolationmode none
attr source packetSentToUpper
attr title "packets passed to higher layer, vector(packetBytes)"
vector 143 SolutionNetwork.switch9.eth[1].mac rxPkOk:vector(packetBytes) ETV
attr interpolationmode none
attr source rxPkOk
attr title "packets received OK, vector(packetBytes)"
vector 144 SolutionNetwork.switch9.eth[1].mac passedUpPk:vector(packetBytes) ETV
attr interpolationmode none
attr source packetSentToUpper
attr title "packets passed to higher layer, vector(packetBytes)"
vector 145 SolutionNetwork.switch11.eth[0].mac rxPkOk:vector(packetBytes) ETV
attr interpolationmode none
attr source rxPkOk
attr title "packets received OK, vector(packetBytes)"
vector 146 SolutionNetwork.switch11.eth[0].mac passedUpPk:vector(packetBytes) ETV
attr interpolationmode none
attr source packetSentToUpper
attr title "packets passed to higher layer, vector(packetBytes)"
vector 147 SolutionNetwork.switch12.eth[0].mac rxPkOk:vector(packetBytes) ETV
attr interpolationmode none
attr source rxPkOk
attr title "packets received OK, vector(packetBytes)"
vector 148 SolutionNetwork.switch12.eth[0].mac passedUpPk:vector(packetBytes) ETV
attr interpolationmode none
attr source packetSentToUpper
attr title "packets passed to higher layer, vector(packetBytes)"
vector 149 SolutionNetwork.switch17.eth[0].mac rxPkOk:vector(packetBytes) ETV
attr interpolationmode none
attr source rxPkOk
attr title "packets received OK, vector(packetBytes)"
vector 150 SolutionNetwork.switch17.eth[0].mac passedUpPk:vector(packetBytes) ETV
attr interpolationmode none
attr source packetSentToUpper
attr title "packets passed to higher layer, vector(packetBytes)"
vector 151 SolutionNetwork.switch18.eth[1].mac rxPkOk:vector(packetBytes) ETV
attr interpolationmode none
attr source rxPkOk
attr title "packets received OK, vector(packetBytes)"
vector 152 SolutionNetwork.switch18.eth[1].mac passedUpPk:vector(packetBytes) ETV
attr interpolationmode none
attr source packetSentToUpper
attr title "packets passed to higher layer, vector(packetBytes)"
vector 153 SolutionNetwork.switch16.eth[0].mac rxPkOk:vector(packetBytes) ETV
attr interpolationmode none
attr source rxPkOk
attr title "packets received OK, vector(packetBytes)"
vector 154 SolutionNetwork.switch16.eth[0].mac passedUpPk:vector(packetBytes) ETV
attr interpolationmode none
attr source packetSentToUpper
attr title "packets passed to higher layer, vector(packetBytes)"
vector 155 SolutionNetwork.ES7.eth.mac rxPkOk:vector(packetBytes) ETV
attr interpolationmode none
attr source rxPkOk
attr title "packets received OK, vector(packetBytes)"
vector 156 SolutionNetwork.ES7.eth.mac passedUpPk:vector(packetBytes) ETV
attr interpolationmode none
attr source packetSentToUpper
attr title "packets passed to higher layer, vector(packetBytes)"
vector 157 SolutionNetwork.switch2.eth[1].mac packetReceivedFromUpper:vector(packetBytes) ETV
attr interpolationmode none
attr source packetReceivedFromUpper
attr title "packet bytes from higher layer, vector(packetBytes)"
vector 158 SolutionNetwork.switch2.eth[1].mac.queue packetPushed:vector(packetBytes) ETV
attr interpolationmode none
attr title "packet pushed, vector(packetBytes)"
vector 159 SolutionNetwork.switch2.eth[1].mac.queue queueLength:vector ETV
attr interpolationmode sample-hold
attr source "count(packetPushed) - count(packetPopped) - count(packetRemoved) - count(packetDropped)"
attr title "queue length, vector"
vector 160 SolutionNetwork.switch2.eth[1].mac.queue packetPopped:vector(packetBytes) ETV
attr interpolationmode none
attr title "packet popped, vector(packetBytes)"
vector 161 SolutionNetwork.switch2.eth[1].mac.queue queueingTime:vector ETV
attr interpolationmode none
attr source queueingTime(packetPopped)
attr title "queueing times, vector"
attr unit s
vector 162 SolutionNetwork.switch3.eth[1].mac packetReceivedFromUpper:vector(packetBytes) ETV
attr interpolationmode none
attr source packetReceivedFromUpper
attr title "packet bytes from higher layer, vector(packetBytes)"
vector 163 SolutionNetwork.switch3.eth[1].mac.queue packetPushed:vector(packetBytes) ETV
attr interpolationmode none
attr title "packet pushed, vector(packetBytes)"
vector 164 SolutionNetwork.switch3.eth[1].mac.queue queueLength:vector ETV
attr interpolationmode sample-hold
attr source "count(packetPushed) - count(packetPopped) - count(packetRemoved) - count(packetDropped)"
attr title "queue length, vector"
vector 165 SolutionNetwork.switch3.eth[1].mac.queue packetPopped:vector(packetBytes) ETV
attr interpolationmode none
attr title "packet popped, vector(packetBytes)"
vector 166 SolutionNetwork.switch3.eth[1].mac.queue queueingTime:vector ETV
attr interpolationmode none
attr source queueingTime(packetPopped)
attr title "queueing times, vector"
attr unit s
vector 167 SolutionNetwork.switch3.eth[2].mac packetReceivedFromUpper:vector(packetBytes) ETV
attr interpolationmode none
attr source packetReceivedFromUpper
attr title "packet bytes from higher layer, vector(packetBytes)"
vector 168 SolutionNetwork.switch3.eth[2].mac.queue packetPushed:vector(packetBytes) ETV
attr interpolationmode none
attr title "packet pushed, vector(packetBytes)"
vector 169 SolutionNetwork.switch3.eth[2].mac.queue queueLength:vector ETV
attr interpolationmode sample-hold
attr source "count(packetPushed) - count(packetPopped) - count(packetRemoved) - count(packetDropped)"
attr title "queue length, vector"
vector 170 SolutionNetwork.switch3.eth[2].mac.queue packetPopped:vector(packetBytes) ETV
attr interpolationmode none
attr title "packet popped, vector(packetBytes)"
vector 171 SolutionNetwork.switch3.eth[2].mac.queue queueingTime:vector ETV
attr interpolationmode none
attr source queueingTime(packetPopped)
attr title "queueing times, vector"
attr unit s
vector 172 SolutionNetwork.switch3.eth[0].mac packetReceivedFromUpper:vector(packetBytes) ETV
attr interpolationmode none
attr source packetReceivedFromUpper
attr title "packet bytes from higher layer, vector(packetBytes)"
vector 173 SolutionNetwork.switch3.eth[0].mac.queue packetPushed:vector(packetBytes) ETV
attr interpolationmode none
attr title "packet pushed, vector(packetBytes)"
vector 174 SolutionNetwork.switch3.eth[0].mac.queue queueLength:vector ETV
attr interpolationmode sample-hold
attr source "count(packetPushed) - count(packetPopped) - count(packetRemoved) - count(packetDropped)"
attr title "queue length, vector"
vector 175 SolutionNetwork.switch3.eth[0].mac.queue packetPopped:vector(packetBytes) ETV
attr interpolationmode none
attr title "packet popped, vector(packetBytes)"
vector 176 SolutionNetwork.switch3.eth[0].mac.queue queueingTime:vector ETV
attr interpolationmode none
attr source queueingTime(packetPopped)
attr title "queueing times, vector"
attr unit s
vector 177 SolutionNetwork.switch6.eth[0].mac packetReceivedFromUpper:vector(packetBytes) ETV
attr interpolationmode none
attr source packetReceivedFromUpper
attr title "packet bytes from higher layer, vector(packetBytes)"
vector 178 SolutionNetwork.switch6.eth[0].mac.queue packetPushed:vector(packetBytes) ETV
attr interpolationmode none
attr title "packet pushed, vector(packetBytes)"
vector 179 SolutionNetwork.switch6.eth[0].mac.queue queueLength:vector ETV
attr interpolationmode sample-hold
attr source "count(packetPushed) - count(packetPopped) - count(packetRemoved) - count(packetDropped)"
attr title "queue length, vector"
vector 180 SolutionNetwork.switch6.eth[0].mac.queue packetPopped:vector(packetBytes) ETV
attr interpolationmode none
attr title "packet popped, vector(packetBytes)"
vector 181 SolutionNetwork.switch6.eth[0].mac.queue queueingTime:vector ETV
attr interpolationmode none
attr source queueingTime(packetPopped)
attr title "queueing times, vector"
attr unit s
vector 182 SolutionNetwork.switch5.eth[0].mac packetReceivedFromUpper:vector(packetBytes) ETV
attr interpolationmode none
attr source packetReceivedFromUpper
attr title "packet bytes from higher layer, vector(packetBytes)"
vector 183 SolutionNetwork.switch5.eth[0].mac.queue packetPushed:vector(packetBytes) ETV
attr interpolationmode none
attr title "packet pushed, vector(packetBytes)"
vector 184 SolutionNetwork.switch5.eth[0].mac.queue queueLength:vector ETV
attr interpolationmode sample-hold
attr source "count(packetPushed) - count(packetPopped) - count(packetRemoved) - count(packetDropped)"
attr title "queue length, vector"
vector 185 SolutionNetwork.switch5.eth[0].mac.queue packetPopped:vector(packetBytes) ETV
attr interpolationmode none
attr title "packet popped, vector(packetBytes)"
vector 186 SolutionNetwork.switch5.eth[0].mac.queue queueingTime:vector ETV
attr interpolationmode none
attr source queueingTime(packetPopped)
attr title "queueing times, vector"
attr unit s
vector 187 SolutionNetwork.switch7.eth[1].mac packetReceivedFromUpper:vector(packetBytes) ETV
attr interpolationmode none
attr source packetReceivedFromUpper
attr title "packet bytes from higher layer, vector(packetBytes)"
vector 188 SolutionNetwork.switch7.eth[1].mac.queue packetPushed:vector(packetBytes) ETV
attr interpolationmode none
attr title "packet pushed, vector(packetBytes)"
vector 189 SolutionNetwork.switch7.eth[1].mac.queue queueLength:vector ETV
attr interpolationmode sample-hold
attr source "count(packetPushed) - count(packetPopped) - count(packetRemoved) - count(packetDropped)"
attr title "queue length, vector"
vector 190 SolutionNetwork.switch7.eth[1].mac.queue packetPopped:vector(packetBytes) ETV
attr interpolationmode none
attr title "packet popped, vector(packetBytes)"
vector 191 SolutionNetwork.switch7.eth[1].mac.queue queueingTime:vector ETV
attr interpolationmode none
attr source queueingTime(packetPopped)
attr title "queueing times, vector"
attr unit s
vector 192 SolutionNetwork.switch8.eth[1].mac packetReceivedFromUpper:vector(packetBytes) ETV
attr interpolationmode none
attr source packetReceivedFromUpper
attr title "packet bytes from higher layer, vector(packetBytes)"
vector 193 SolutionNetwork.switch8.eth[1].mac.queue packetPushed:vector(packetBytes) ETV
attr interpolationmode none
attr title "packet pushed, vector(packetBytes)"
vector 194 SolutionNetwork.switch8.eth[1].mac.queue queueLength:vector ETV
attr interpolationmode sample-hold
attr source "count(packetPushed) - count(packetPopped) - count(packetRemoved) - count(packetDropped)"
attr title "queue length, vector"
vector 195 SolutionNetwork.switch8.eth[1].mac.queue packetPopped:vector(packetBytes) ETV
attr interpolationmode none
attr title "packet popped, vector(packetBytes)"
vector 196 SolutionNetwork.switch8.eth[1].mac.queue queueingTime:vector ETV
attr interpolationmode none
attr source queueingTime(packetPopped)
attr title "queueing times, vector"
attr unit s
vector 197 SolutionNetwork.switch9.eth[0].mac packetReceivedFromUpper:vector(packetBytes) ETV
attr interpolationmode none
attr source packetReceivedFromUpper
attr title "packet bytes from higher layer, vector(packetBytes)"
vector 198 SolutionNetwork.switch9.eth[0].mac.queue packetPushed:vector(packetBytes) ETV
attr interpolationmode none
attr title "packet pushed, vector(packetBytes)"
vector 199 SolutionNetwork.switch9.eth[0].mac.queue queueLength:vector ETV
attr interpolationmode sample-hold
attr source "count(packetPushed) - count(packetPopped) - count(packetRemoved) - count(packetDropped)"
attr title "queue length, vector"
vector 200 SolutionNetwork.switch9.eth[0].mac.queue packetPopped:vector(packetBytes) ETV
attr interpolationmode none
attr title "packet popped, vector(packetBytes)"
vector 201 SolutionNetwork.switch9.eth[0].mac.queue queueingTime:vector ETV
attr interpolationmode none
attr source queueingTime(packetPopped)
attr title "queueing times, vector"
attr unit s
vector 202 SolutionNetwork.switch11.eth[1].mac packetReceivedFromUpper:vector(packetBytes) ETV
attr interpolationmode none
attr source packetReceivedFromUpper
attr title "packet bytes from higher layer, vector(packetBytes)"
vector 203 SolutionNetwork.switch11.eth[1].mac.queue packetPushed:vector(packetBytes) ETV
attr interpolationmode none
attr title "packet pushed, vector(packetBytes)"
vector 204 SolutionNetwork.switch11.eth[1].mac.queue queueLength:vector ETV
attr interpolationmode sample-hold
attr source "count(packetPushed) - count(packetPopped) - count(packetRemoved) - count(packetDropped)"
attr title "queue length, vector"
vector 205 SolutionNetwork.switch11.eth[1].mac.queue packetPopped:vector(packetBytes) ETV
attr interpolationmode none
attr title "packet popped, vector(packetBytes)"
vector 206 SolutionNetwork.switch11.eth[1].mac.queue queueingTime:vector ETV
attr interpolationmode none
attr source queueingTime(packetPopped)
attr title "queueing times, vector"
attr unit s
vector 207 SolutionNetwork.switch12.eth[1].mac packetReceivedFromUpper:vector(packetBytes) ETV
attr interpolationmode none
attr source packetReceivedFromUpper
attr title "packet bytes from higher layer, vector(packetBytes)"
vector 208 SolutionNetwork.switch12.eth[1].mac.queue packetPushed:vector(packetBytes) ETV
attr interpolationmode none
attr title "packet pushed, vector(packetBytes)"
vector 209 SolutionNetwork.switch12.eth[1].mac.queue queueLength:vector ETV
attr interpolationmode sample-hold
attr source "count(packetPushed) - count(packetPopped) - count(packetRemoved) - count(packetDropped)"
attr title "queue length, vector"
vector 210 SolutionNetwork.switch12.eth[1].mac.queue packetPopped:vector(packetBytes) ETV
attr interpolationmode none
attr title "packet popped, vector(packetBytes)"
vector 211 SolutionNetwork.switch12.eth[1].mac.queue queueingTime:vector ETV
attr interpolationmode none
attr source queueingTime(packetPopped)
attr title "queueing times, vector"
attr unit s
vector 212 SolutionNetwork.switch17.eth[1].mac packetReceivedFromUpper:vector(packetBytes) ETV
attr interpolationmode none
attr source packetReceivedFromUpper
attr title "packet bytes from higher layer, vector(packetBytes)"
vector 213 SolutionNetwork.switch17.eth[1].mac.queue packetPushed:vector(packetBytes) ETV
attr interpolationmode none
attr title "packet pushed, vector(packetBytes)"
vector 214 SolutionNetwork.switch17.eth[1].mac.queue queueLength:vector ETV
attr interpolationmode sample-hold
attr source "count(packetPushed) - count(packetPopped) - count(packetRemoved) - count(packetDropped)"
attr title "queue length, vector"
vector 215 SolutionNetwork.switch17.eth[1].mac.queue packetPopped:vector(packetBytes) ETV
attr interpolationmode none
attr title "packet popped, vector(packetBytes)"
vector 216 SolutionNetwork.switch17.eth[1].mac.queue queueingTime:vector ETV
attr interpolationmode none
attr source queueingTime(packetPopped)
attr title "queueing times, vector"
attr unit s
vector 217 SolutionNetwork.switch18.eth[0].mac packetReceivedFromUpper:vector(packetBytes) ETV
attr interpolationmode none
attr source packetReceivedFromUpper
attr title "packet bytes from higher layer, vector(packetBytes)"
vector 218 SolutionNetwork.switch18.eth[0].mac.queue packetPushed:vector(packetBytes) ETV
attr interpolationmode none
attr title "packet pushed, vector(packetBytes)"
vector 219 SolutionNetwork.switch18.eth[0].mac.queue queueLength:vector ETV
attr interpolationmode sample-hold
attr source "count(packetPushed) - count(packetPopped) - count(packetRemoved) - count(packetDropped)"
attr title "queue length, vector"
vector 220 SolutionNetwork.switch18.eth[0].mac.queue packetPopped:vector(packetBytes) ETV
attr interpolationmode none
attr title "packet popped, vector(packetBytes)"
vector 221 SolutionNetwork.switch18.eth[0].mac.queue queueingTime:vector ETV
attr interpolationmode none
attr source queueingTime(packetPopped)
attr title "queueing times, vector"
attr unit s
vector 222 SolutionNetwork.switch16.eth[1].mac packetReceivedFromUpper:vector(packetBytes) ETV
attr interpolationmode none
attr source packetReceivedFromUpper
attr title "packet bytes from higher layer, vector(packetBytes)"
vector 223 SolutionNetwork.switch16.eth[1].mac.queue packetPushed:vector(packetBytes) ETV
attr interpolationmode none
attr title "packet pushed, vector(packetBytes)"
vector 224 SolutionNetwork.switch16.eth[1].mac.queue queueLength:vector ETV
attr interpolationmode sample-hold
attr source "count(packetPushed) - count(packetPopped) - count(packetRemoved) - count(packetDropped)"
attr title "queue length, vector"
vector 225 SolutionNetwork.switch16.eth[1].mac.queue packetPopped:vector(packetBytes) ETV
attr interpolationmode none
attr title "packet popped, vector(packetBytes)"
vector 226 SolutionNetwork.switch16.eth[1].mac.queue queueingTime:vector ETV
attr interpolationmode none
attr source queueingTime(packetPopped)
attr title "queueing times, vector"
attr unit s
vector 227 SolutionNetwork.ES7.srv packetReceived:vector(packetBytes) ETV
attr interpolationmode none
attr source packetReceived
attr title "packets received, vector(packetBytes)"
vector 228 SolutionNetwork.ES7.srv packetSent:vector(packetBytes) ETV
attr interpolationmode none
attr source packetSent
attr title "packets sent, vector(packetBytes)"
vector 229 SolutionNetwork.ES7.llc encapPk:vector(packetBytes) ETV
attr interpolationmode none
attr source encapPk
attr title "packets encapsulated, vector(packetBytes)"
vector 230 SolutionNetwork.ES7.eth.mac packetReceivedFromUpper:vector(packetBytes) ETV
attr interpolationmode none
attr source packetReceivedFromUpper
attr title "packet bytes from higher layer, vector(packetBytes)"
vector 231 SolutionNetwork.ES7.eth.mac.queue packetPushed:vector(packetBytes) ETV
attr interpolationmode none
attr title "packet pushed, vector(packetBytes)"
vector 232 SolutionNetwork.ES7.eth.mac.queue queueLength:vector ETV
attr interpolationmode sample-hold
attr source "count(packetPushed) - count(packetPopped) - count(packetRemoved) - count(packetDropped)"
attr title "queue length, vector"
vector 233 SolutionNetwork.ES7.eth.mac.queue packetPopped:vector(packetBytes) ETV
attr interpolationmode none
attr title "packet popped, vector(packetBytes)"
vector 234 SolutionNetwork.ES7.eth.mac.queue queueingTime:vector ETV
attr interpolationmode none
attr source queueingTime(packetPopped)
attr title "queueing times, vector"
attr unit s
vector 235 SolutionNetwork.switch2.eth[1].mac txPk:vector(packetBytes) ETV
attr interpolationmode none
attr source packetSentToLower
attr title "packets transmitted, vector(packetBytes)"
vector 236 SolutionNetwork.switch3.eth[1].mac txPk:vector(packetBytes) ETV
attr interpolationmode none
attr source packetSentToLower
attr title "packets transmitted, vector(packetBytes)"
vector 237 SolutionNetwork.switch6.eth[0].mac txPk:vector(packetBytes) ETV
attr interpolationmode none
attr source packetSentToLower
attr title "packets transmitted, vector(packetBytes)"
vector 238 SolutionNetwork.switch5.eth[0].mac txPk:vector(packetBytes) ETV
attr interpolationmode none
attr source packetSentToLower
attr title "packets transmitted, vector(packetBytes)"
vector 239 SolutionNetwork.switch7.eth[1].mac txPk:vector(packetBytes) ETV
attr interpolationmode none
attr source packetSentToLower
attr title "packets transmitted, vector(packetBytes)"
vector 240 SolutionNetwork.switch8.eth[1].mac txPk:vector(packetBytes) ETV
attr interpolationmode none
attr source packetSentToLower
attr title "packets transmitted, vector(packetBytes)"
vector 241 SolutionNetwork.switch9.eth[0].mac txPk:vector(packetBytes) ETV
attr interpolationmode none
attr source packetSentToLower
attr title "packets transmitted, vector(packetBytes)"
vector 242 SolutionNetwork.switch11.eth[1].mac txPk:vector(packetBytes) ETV
attr interpolationmode none
attr source packetSentToLower
attr title "packets transmitted, vector(packetBytes)"
vector 243 SolutionNetwork.switch12.eth[1].mac txPk:vector(packetBytes) ETV
attr interpolationmode none
attr source packetSentToLower
attr title "packets transmitted, vector(packetBytes)"
vector 244 SolutionNetwork.switch17.eth[1].mac txPk:vector(packetBytes) ETV
attr interpolationmode none
attr source packetSentToLower
attr title "packets transmitted, vector(packetBytes)"
vector 245 SolutionNetwork.switch18.eth[0].mac txPk:vector(packetBytes) ETV
attr interpolationmode none
attr source packetSentToLower
attr title "packets transmitted, vector(packetBytes)"
vector 246 SolutionNetwork.switch16.eth[1].mac txPk:vector(packetBytes) ETV
attr interpolationmode none
attr source packetSentToLower
attr title "packets transmitted, vector(packetBytes)"
vector 247 SolutionNetwork.switch3.eth[0].mac txPk:vector(packetBytes) ETV
attr interpolationmode none
attr source packetSentToLower
attr title "packets transmitted, vector(packetBytes)"
vector 248 SolutionNetwork.switch3.eth[2].mac txPk:vector(packetBytes) ETV
attr interpolationmode none
attr source packetSentToLower
attr title "packets transmitted, vector(packetBytes)"
vector 249 SolutionNetwork.ES7.eth.mac txPk:vector(packetBytes) ETV
attr interpolationmode none
attr source packetSentToLower
attr title "packets transmitted, vector(packetBytes)"
vector 250 SolutionNetwork.ES0.eth.mac rxPkOk:vector(packetBytes) ETV
attr interpolationmode none
attr source rxPkOk
attr title "packets received OK, vector(packetBytes)"
vector 251 SolutionNetwork.ES0.eth.mac passedUpPk:vector(packetBytes) ETV
attr interpolationmode none
attr source packetSentToUpper
attr title "packets passed to higher layer, vector(packetBytes)"
vector 252 SolutionNetwork.switch4.eth[0].mac rxPkOk:vector(packetBytes) ETV
attr interpolationmode none
attr source rxPkOk
attr title "packets received OK, vector(packetBytes)"
vector 253 SolutionNetwork.switch4.eth[0].mac passedUpPk:vector(packetBytes) ETV
attr interpolationmode none
attr source packetSentToUpper
attr title "packets passed to higher layer, vector(packetBytes)"
vector 254 SolutionNetwork.rsu[2].eth.mac rxPkOk:vector(packetBytes) ETV
attr interpolationmode none
attr source rxPkOk
attr title "packets received OK, vector(packetBytes)"
vector 255 SolutionNetwork.rsu[2].eth.mac passedUpPk:vector(packetBytes) ETV
attr interpolationmode none
attr source packetSentToUpper
attr title "packets passed to higher layer, vector(packetBytes)"
vector 256 SolutionNetwork.rsu[1].eth.mac rxPkOk:vector(packetBytes) ETV
attr interpolationmode none
attr source rxPkOk
attr title "packets received OK, vector(packetBytes)"
vector 257 SolutionNetwork.rsu[1].eth.mac passedUpPk:vector(packetBytes) ETV
attr interpolationmode none
attr source packetSentToUpper
attr title "packets passed to higher layer, vector(packetBytes)"
vector 258 SolutionNetwork.ES2.eth.mac rxPkOk:vector(packetBytes) ETV
attr interpolationmode none
attr source rxPkOk
attr title "packets received OK, vector(packetBytes)"
vector 259 SolutionNetwork.ES2.eth.mac passedUpPk:vector(packetBytes) ETV
attr interpolationmode none
attr source packetSentToUpper
attr title "packets passed to higher layer, vector(packetBytes)"
vector 260 SolutionNetwork.switch9.eth[0].mac rxPkOk:vector(packetBytes) ETV
attr interpolationmode none
attr source rxPkOk
attr title "packets received OK, vector(packetBytes)"
vector 261 SolutionNetwork.switch9.eth[0].mac passedUpPk:vector(packetBytes) ETV
attr interpolationmode none
attr source packetSentToUpper
attr title "packets passed to higher layer, vector(packetBytes)"
vector 262 SolutionNetwork.switch8.eth[1].mac rxPkOk:vector(packetBytes) ETV
attr interpolationmode none
attr source rxPkOk
attr title "packets received OK, vector(packetBytes)"
vector 263 SolutionNetwork.switch8.eth[1].mac passedUpPk:vector(packetBytes) ETV
attr interpolationmode none
attr source packetSentToUpper
attr title "packets passed to higher layer, vector(packetBytes)"
vector 264 SolutionNetwork.ES3.eth.mac rxPkOk:vector(packetBytes) ETV
attr interpolationmode none
attr source rxPkOk
attr title "packets received OK, vector(packetBytes)"
vector 265 SolutionNetwork.ES3.eth.mac passedUpPk:vector(packetBytes) ETV
attr interpolationmode none
attr source packetSentToUpper
attr title "packets passed to higher layer, vector(packetBytes)"
vector 266 SolutionNetwork.switch13.eth[0].mac rxPkOk:vector(packetBytes) ETV
attr interpolationmode none
attr source rxPkOk
attr title "packets received OK, vector(packetBytes)"
vector 267 SolutionNetwork.switch13.eth[0].mac passedUpPk:vector(packetBytes) ETV
attr interpolationmode none
attr source packetSentToUpper
attr title "packets passed to higher layer, vector(packetBytes)"
vector 268 SolutionNetwork.switch18.eth[0].mac rxPkOk:vector(packetBytes) ETV
attr interpolationmode none
attr source rxPkOk
attr title "packets received OK, vector(packetBytes)"
vector 269 SolutionNetwork.switch18.eth[0].mac passedUpPk:vector(packetBytes) ETV
attr interpolationmode none
attr source packetSentToUpper
attr title "packets passed to higher layer, vector(packetBytes)"
vector 270 SolutionNetwork.switch17.eth[1].mac rxPkOk:vector(packetBytes) ETV
attr interpolationmode none
attr source rxPkOk
attr title "packets received OK, vector(packetBytes)"
vector 271 SolutionNetwork.switch17.eth[1].mac passedUpPk:vector(packetBytes) ETV
attr interpolationmode none
attr source packetSentToUpper
attr title "packets passed to higher layer, vector(packetBytes)"
vector 272 SolutionNetwork.ES6.eth.mac rxPkOk:vector(packetBytes) ETV
attr interpolationmode none
attr source rxPkOk
attr title "packets received OK, vector(packetBytes)"
vector 273 SolutionNetwork.ES6.eth.mac passedUpPk:vector(packetBytes) ETV
attr interpolationmode none
attr source packetSentToUpper
attr title "packets passed to higher layer, vector(packetBytes)"
vector 274 SolutionNetwork.ES0.srv packetReceived:vector(packetBytes) ETV
attr interpolationmode none
attr source packetReceived
attr title "packets received, vector(packetBytes)"
vector 275 SolutionNetwork.ES0.srv packetSent:vector(packetBytes) ETV
attr interpolationmode none
attr source packetSent
attr title "packets sent, vector(packetBytes)"
vector 276 SolutionNetwork.switch4.eth[1].mac packetReceivedFromUpper:vector(packetBytes) ETV
attr interpolationmode none
attr source packetReceivedFromUpper
attr title "packet bytes from higher layer, vector(packetBytes)"
vector 277 SolutionNetwork.switch4.eth[1].mac.queue packetPushed:vector(packetBytes) ETV
attr interpolationmode none
attr title "packet pushed, vector(packetBytes)"
vector 278 SolutionNetwork.switch4.eth[1].mac.queue queueLength:vector ETV
attr interpolationmode sample-hold
attr source "count(packetPushed) - count(packetPopped) - count(packetRemoved) - count(packetDropped)"
attr title "queue length, vector"
vector 279 SolutionNetwork.switch4.eth[1].mac.queue packetPopped:vector(packetBytes) ETV
attr interpolationmode none
attr title "packet popped, vector(packetBytes)"
vector 280 SolutionNetwork.switch4.eth[1].mac.queue queueingTime:vector ETV
attr interpolationmode none
attr source queueingTime(packetPopped)
attr title "queueing times, vector"
attr unit s
vector 281 SolutionNetwork.ES2.srv packetReceived:vector(packetBytes) ETV
attr interpolationmode none
attr source packetReceived
attr title "packets received, vector(packetBytes)"
vector 282 SolutionNetwork.ES2.srv packetSent:vector(packetBytes) ETV
attr interpolationmode none
attr source packetSent
attr title "packets sent, vector(packetBytes)"
vector 283 SolutionNetwork.switch9.eth[1].mac packetReceivedFromUpper:vector(packetBytes) ETV
attr interpolationmode none
attr source packetReceivedFromUpper
attr title "packet bytes from higher layer, vector(packetBytes)"
vector 284 SolutionNetwork.switch9.eth[1].mac.queue packetPushed:vector(packetBytes) ETV
attr interpolationmode none
attr title "packet pushed, vector(packetBytes)"
vector 285 SolutionNetwork.switch9.eth[1].mac.queue queueLength:vector ETV
attr interpolationmode sample-hold
attr source "count(packetPushed) - count(packetPopped) - count(packetRemoved) - count(packetDropped)"
attr title "queue length, vector"
vector 286 SolutionNetwork.switch9.eth[1].mac.queue packetPopped:vector(packetBytes) ETV
attr interpolationmode none
attr title "packet popped, vector(packetBytes)"
vector 287 SolutionNetwork.switch9.eth[1].mac.queue queueingTime:vector ETV
attr interpolationmode none
attr source queueingTime(packetPopped)
attr title "queueing times, vector"
attr unit s
vector 288 SolutionNetwork.switch8.eth[0].mac packetReceivedFromUpper:vector(packetBytes) ETV
attr interpolationmode none
attr source packetReceivedFromUpper
attr title "packet bytes from higher layer, vector(packetBytes)"
vector 289 SolutionNetwork.switch8.eth[0].mac.queue packetPushed:vector(packetBytes) ETV
attr interpolationmode none
attr title "packet pushed, vector(packetBytes)"
vector 290 SolutionNetwork.switch8.eth[0].mac.queue queueLength:vector ETV
attr interpolationmode sample-hold
attr source "count(packetPushed) - count(packetPopped) - count(packetRemoved) - count(packetDropped)"
attr title "queue length, vector"
vector 291 SolutionNetwork.switch8.eth[0].mac.queue packetPopped:vector(packetBytes) ETV
attr interpolationmode none
attr title "packet popped, vector(packetBytes)"
vector 292 SolutionNetwork.switch8.eth[0].mac.queue queueingTime:vector ETV
attr interpolationmode none
attr source queueingTime(packetPopped)
attr title "queueing times, vector"
attr unit s
vector 293 SolutionNetwork.ES3.srv packetReceived:vector(packetBytes) ETV
attr interpolationmode none
attr source packetReceived
attr title "packets received, vector(packetBytes)"
vector 294 SolutionNetwork.ES3.srv packetSent:vector(packetBytes) ETV
attr interpolationmode none
attr source packetSent
attr title "packets sent, vector(packetBytes)"
vector 295 SolutionNetwork.switch13.eth[1].mac packetReceivedFromUpper:vector(packetBytes) ETV
attr interpolationmode none
attr source packetReceivedFromUpper
attr title "packet bytes from higher layer, vector(packetBytes)"
vector 296 SolutionNetwork.switch13.eth[1].mac.queue packetPushed:vector(packetBytes) ETV
attr interpolationmode none
attr title "packet pushed, vector(packetBytes)"
vector 297 SolutionNetwork.switch13.eth[1].mac.queue queueLength:vector ETV
attr interpolationmode sample-hold
attr source "count(packetPushed) - count(packetPopped) - count(packetRemoved) - count(packetDropped)"
attr title "queue length, vector"
vector 298 SolutionNetwork.switch13.eth[1].mac.queue packetPopped:vector(packetBytes) ETV
attr interpolationmode none
attr title "packet popped, vector(packetBytes)"
vector 299 SolutionNetwork.switch13.eth[1].mac.queue queueingTime:vector ETV
attr interpolationmode none
attr source queueingTime(packetPopped)
attr title "queueing times, vector"
attr unit s
vector 300 SolutionNetwork.switch13.eth[2].mac packetReceivedFromUpper:vector(packetBytes) ETV
attr interpolationmode none
attr source packetReceivedFromUpper
attr title "packet bytes from higher layer, vector(packetBytes)"
vector 301 SolutionNetwork.switch13.eth[2].mac.queue packetPushed:vector(packetBytes) ETV
attr interpolationmode none
attr title "packet pushed, vector(packetBytes)"
vector 302 SolutionNetwork.switch13.eth[2].mac.queue queueLength:vector ETV
attr interpolationmode sample-hold
attr source "count(packetPushed) - count(packetPopped) - count(packetRemoved) - count(packetDropped)"
attr title "queue length, vector"
vector 303 SolutionNetwork.switch13.eth[2].mac.queue packetPopped:vector(packetBytes) ETV
attr interpolationmode none
attr title "packet popped, vector(packetBytes)"
vector 304 SolutionNetwork.switch13.eth[2].mac.queue queueingTime:vector ETV
attr interpolationmode none
attr source queueingTime(packetPopped)
attr title "queueing times, vector"
attr unit s
vector 305 SolutionNetwork.switch18.eth[1].mac packetReceivedFromUpper:vector(packetBytes) ETV
attr interpolationmode none
attr source packetReceivedFromUpper
attr title "packet bytes from higher layer, vector(packetBytes)"
vector 306 SolutionNetwork.switch18.eth[1].mac.queue packetPushed:vector(packetBytes) ETV
attr interpolationmode none
attr title "packet pushed, vector(packetBytes)"
vector 307 SolutionNetwork.switch18.eth[1].mac.queue queueLength:vector ETV
attr interpolationmode sample-hold
attr source "count(packetPushed) - count(packetPopped) - count(packetRemoved) - count(packetDropped)"
attr title "queue length, vector"
vector 308 SolutionNetwork.switch18.eth[1].mac.queue packetPopped:vector(packetBytes) ETV
attr interpolationmode none
attr title "packet popped, vector(packetBytes)"
vector 309 SolutionNetwork.switch18.eth[1].mac.queue queueingTime:vector ETV
attr interpolationmode none
attr source queueingTime(packetPopped)
attr title "queueing times, vector"
attr unit s
vector 310 SolutionNetwork.switch17.eth[0].mac packetReceivedFromUpper:vector(packetBytes) ETV
attr interpolationmode none
attr source packetReceivedFromUpper
attr title "packet bytes from higher layer, vector(packetBytes)"
vector 311 SolutionNetwork.switch17.eth[0].mac.queue packetPushed:vector(packetBytes) ETV
attr interpolationmode none
attr title "packet pushed, vector(packetBytes)"
vector 312 SolutionNetwork.switch17.eth[0].mac.queue queueLength:vector ETV
attr interpolationmode sample-hold
attr source "count(packetPushed) - count(packetPopped) - count(packetRemoved) - count(packetDropped)"
attr title "queue length, vector"
vector 313 SolutionNetwork.switch17.eth[0].mac.queue packetPopped:vector(packetBytes) ETV
attr interpolationmode none
attr title "packet popped, vector(packetBytes)"
vector 314 SolutionNetwork.switch17.eth[0].mac.queue queueingTime:vector ETV
attr interpolationmode none
attr source queueingTime(packetPopped)
attr title "queueing times, vector"
attr unit s
vector 315 SolutionNetwork.ES6.srv packetReceived:vector(packetBytes) ETV
attr interpolationmode none
attr source packetReceived
attr title "packets received, vector(packetBytes)"
vector 316 SolutionNetwork.ES6.srv packetSent:vector(packetBytes) ETV
attr interpolationmode none
attr source packetSent
attr title "packets sent, vector(packetBytes)"
vector 317 SolutionNetwork.ES0.llc encapPk:vector(packetBytes) ETV
attr interpolationmode none
attr source encapPk
attr title "packets encapsulated, vector(packetBytes)"
vector 318 SolutionNetwork.ES2.llc encapPk:vector(packetBytes) ETV
attr interpolationmode none
attr source encapPk
attr title "packets encapsulated, vector(packetBytes)"
vector 319 SolutionNetwork.ES3.llc encapPk:vector(packetBytes) ETV
attr interpolationmode none
attr source encapPk
attr title "packets encapsulated, vector(packetBytes)"
vector 320 SolutionNetwork.ES6.llc encapPk:vector(packetBytes) ETV
attr interpolationmode none
attr source encapPk
attr title "packets encapsulated, vector(packetBytes)"
vector 321 SolutionNetwork.ES0.eth.mac packetReceivedFromUpper:vector(packetBytes) ETV
attr interpolationmode none
attr source packetReceivedFromUpper
attr title "packet bytes from higher layer, vector(packetBytes)"
vector 322 SolutionNetwork.ES0.eth.mac.queue packetPushed:vector(packetBytes) ETV
attr interpolationmode none
attr title "packet pushed, vector(packetBytes)"
vector 323 SolutionNetwork.ES0.eth.mac.queue queueLength:vector ETV
attr interpolationmode sample-hold
attr source "count(packetPushed) - count(packetPopped) - count(packetRemoved) - count(packetDropped)"
attr title "queue length, vector"
vector 324 SolutionNetwork.ES0.eth.mac.queue packetPopped:vector(packetBytes) ETV
attr interpolationmode none
attr title "packet popped, vector(packetBytes)"
vector 325 SolutionNetwork.ES0.eth.mac.queue queueingTime:vector ETV
attr interpolationmode none
attr source queueingTime(packetPopped)
attr title "queueing times, vector"
attr unit s
vector 326 SolutionNetwork.ES2.eth.mac packetReceivedFromUpper:vector(packetBytes) ETV
attr interpolationmode none
attr source packetReceivedFromUpper
attr title "packet bytes from higher layer, vector(packetBytes)"
vector 327 SolutionNetwork.ES2.eth.mac.queue packetPushed:vector(packetBytes) ETV
attr interpolationmode none
attr title "packet pushed, vector(packetBytes)"
vector 328 SolutionNetwork.ES2.eth.mac.queue queueLength:vector ETV
attr interpolationmode sample-hold
attr source "count(packetPushed) - count(packetPopped) - count(packetRemoved) - count(packetDropped)"
attr title "queue length, vector"
vector 329 SolutionNetwork.ES2.eth.mac.queue packetPopped:vector(packetBytes) ETV
attr interpolationmode none
attr title "packet popped, vector(packetBytes)"
vector 330 SolutionNetwork.ES2.eth.mac.queue queueingTime:vector ETV
attr interpolationmode none
attr source queueingTime(packetPopped)
attr title "queueing times, vector"
attr unit s
vector 331 SolutionNetwork.ES3.eth.mac packetReceivedFromUpper:vector(packetBytes) ETV
attr interpolationmode none
attr source packetReceivedFromUpper
attr title "packet bytes from higher layer, vector(packetBytes)"
vector 332 SolutionNetwork.ES3.eth.mac.queue packetPushed:vector(packetBytes) ETV
attr interpolationmode none
attr title "packet pushed, vector(packetBytes)"
vector 333 SolutionNetwork.ES3.eth.mac.queue queueLength:vector ETV
attr interpolationmode sample-hold
attr source "count(packetPushed) - count(packetPopped) - count(packetRemoved) - count(packetDropped)"
attr title "queue length, vector"
vector 334 SolutionNetwork.ES3.eth.mac.queue packetPopped:vector(packetBytes) ETV
attr interpolationmode none
attr title "packet popped, vector(packetBytes)"
vector 335 SolutionNetwork.ES3.eth.mac.queue queueingTime:vector ETV
attr interpolationmode none
attr source queueingTime(packetPopped)
attr title "queueing times, vector"
attr unit s
vector 336 SolutionNetwork.ES6.eth.mac packetReceivedFromUpper:vector(packetBytes) ETV
attr interpolationmode none
attr source packetReceivedFromUpper
attr title "packet bytes from higher layer, vector(packetBytes)"
vector 337 SolutionNetwork.ES6.eth.mac.queue packetPushed:vector(packetBytes) ETV
attr interpolationmode none
attr title "packet pushed, vector(packetBytes)"
vector 338 SolutionNetwork.ES6.eth.mac.queue queueLength:vector ETV
attr interpolationmode sample-hold
attr source "count(packetPushed) - count(packetPopped) - count(packetRemoved) - count(packetDropped)"
attr title "queue length, vector"
vector 339 SolutionNetwork.ES6.eth.mac.queue packetPopped:vector(packetBytes) ETV
attr interpolationmode none
attr title "packet popped, vector(packetBytes)"
vector 340 SolutionNetwork.ES6.eth.mac.queue queueingTime:vector ETV
attr interpolationmode none
attr source queueingTime(packetPopped)
attr title "queueing times, vector"
attr unit s
vector 341 SolutionNetwork.switch1.eth[2].mac rxPkOk:vector(packetBytes) ETV
attr interpolationmode none
attr source rxPkOk
attr title "packets received OK, vector(packetBytes)"
vector 342 SolutionNetwork.switch1.eth[2].mac passedUpPk:vector(packetBytes) ETV
attr interpolationmode none
attr source packetSentToUpper
attr title "packets passed to higher layer, vector(packetBytes)"
vector 343 SolutionNetwork.switch5.eth[1].mac rxPkOk:vector(packetBytes) ETV
attr interpolationmode none
attr source rxPkOk
attr title "packets received OK, vector(packetBytes)"
vector 344 SolutionNetwork.switch5.eth[1].mac passedUpPk:vector(packetBytes) ETV
attr interpolationmode none
attr source packetSentToUpper
attr title "packets passed to higher layer, vector(packetBytes)"
vector 345 SolutionNetwork.switch15.eth[2].mac rxPkOk:vector(packetBytes) ETV
attr interpolationmode none
attr source rxPkOk
attr title "packets received OK, vector(packetBytes)"
vector 346 SolutionNetwork.switch15.eth[2].mac passedUpPk:vector(packetBytes) ETV
attr interpolationmode none
attr source packetSentToUpper
attr title "packets passed to higher layer, vector(packetBytes)"
vector 347 SolutionNetwork.switch1.eth[0].mac packetReceivedFromUpper:vector(packetBytes) ETV
attr interpolationmode none
attr source packetReceivedFromUpper
attr title "packet bytes from higher layer, vector(packetBytes)"
vector 348 SolutionNetwork.switch1.eth[0].mac.queue packetPushed:vector(packetBytes) ETV
attr interpolationmode none
attr title "packet pushed, vector(packetBytes)"
vector 349 SolutionNetwork.switch1.eth[0].mac.queue queueLength:vector ETV
attr interpolationmode sample-hold
attr source "count(packetPushed) - count(packetPopped) - count(packetRemoved) - count(packetDropped)"
attr title "queue length, vector"
vector 350 SolutionNetwork.switch1.eth[0].mac.queue packetPopped:vector(packetBytes) ETV
attr interpolationmode none
attr title "packet popped, vector(packetBytes)"
vector 351 SolutionNetwork.switch1.eth[0].mac.queue queueingTime:vector ETV
attr interpolationmode none
attr source queueingTime(packetPopped)
attr title "queueing times, vector"
attr unit s
vector 352 SolutionNetwork.switch15.eth[3].mac packetReceivedFromUpper:vector(packetBytes) ETV
attr interpolationmode none
attr source packetReceivedFromUpper
attr title "packet bytes from higher layer, vector(packetBytes)"
vector 353 SolutionNetwork.switch15.eth[3].mac.queue packetPushed:vector(packetBytes) ETV
attr interpolationmode none
attr title "packet pushed, vector(packetBytes)"
vector 354 SolutionNetwork.switch15.eth[3].mac.queue queueLength:vector ETV
attr interpolationmode sample-hold
attr source "count(packetPushed) - count(packetPopped) - count(packetRemoved) - count(packetDropped)"
attr title "queue length, vector"
vector 355 SolutionNetwork.switch15.eth[3].mac.queue packetPopped:vector(packetBytes) ETV
attr interpolationmode none
attr title "packet popped, vector(packetBytes)"
vector 356 SolutionNetwork.switch15.eth[3].mac.queue queueingTime:vector ETV
attr interpolationmode none
attr source queueingTime(packetPopped)
attr title "queueing times, vector"
attr unit s
vector 357 SolutionNetwork.switch4.eth[1].mac txPk:vector(packetBytes) ETV
attr interpolationmode none
attr source packetSentToLower
attr title "packets transmitted, vector(packetBytes)"
vector 358 SolutionNetwork.switch9.eth[1].mac txPk:vector(packetBytes) ETV
attr interpolationmode none
attr source packetSentToLower
attr title "packets transmitted, vector(packetBytes)"
vector 359 SolutionNetwork.switch13.eth[1].mac txPk:vector(packetBytes) ETV
attr interpolationmode none
attr source packetSentToLower
attr title "packets transmitted, vector(packetBytes)"
vector 360 SolutionNetwork.switch13.eth[2].mac txPk:vector(packetBytes) ETV
attr interpolationmode none
attr source packetSentToLower
attr title "packets transmitted, vector(packetBytes)"
vector 361 SolutionNetwork.switch18.eth[1].mac txPk:vector(packetBytes) ETV
attr interpolationmode none
attr source packetSentToLower
attr title "packets transmitted, vector(packetBytes)"
vector 362 SolutionNetwork.switch17.eth[0].mac txPk:vector(packetBytes) ETV
attr interpolationmode none
attr source packetSentToLower
attr title "packets transmitted, vector(packetBytes)"
vector 363 SolutionNetwork.ES0.eth.mac txPk:vector(packetBytes) ETV
attr interpolationmode none
attr source packetSentToLower
attr title "packets transmitted, vector(packetBytes)"
vector 364 SolutionNetwork.switch8.eth[0].mac txPk:vector(packetBytes) ETV
attr interpolationmode none
attr source packetSentToLower
attr title "packets transmitted, vector(packetBytes)"
vector 365 SolutionNetwork.ES2.eth.mac txPk:vector(packetBytes) ETV
attr interpolationmode none
attr source packetSentToLower
attr title "packets transmitted, vector(packetBytes)"
vector 366 SolutionNetwork.ES3.eth.mac txPk:vector(packetBytes) ETV
attr interpolationmode none
attr source packetSentToLower
attr title "packets transmitted, vector(packetBytes)"
vector 367 SolutionNetwork.ES6.eth.mac txPk:vector(packetBytes) ETV
attr interpolationmode none
attr source packetSentToLower
attr title "packets transmitted, vector(packetBytes)"
vector 368 SolutionNetwork.switch1.eth[0].mac txPk:vector(packetBytes) ETV
attr interpolationmode none
attr source packetSentToLower
attr title "packets transmitted, vector(packetBytes)"
vector 369 SolutionNetwork.switch15.eth[3].mac txPk:vector(packetBytes) ETV
attr interpolationmode none
attr source packetSentToLower
attr title "packets transmitted, vector(packetBytes)"
vector 370 SolutionNetwork.ES1.eth.mac rxPkOk:vector(packetBytes) ETV
attr interpolationmode none
attr source rxPkOk
attr title "packets received OK, vector(packetBytes)"
vector 371 SolutionNetwork.ES1.eth.mac passedUpPk:vector(packetBytes) ETV
attr interpolationmode none
attr source packetSentToUpper
attr title "packets passed to higher layer, vector(packetBytes)"
vector 372 SolutionNetwork.switch10.eth[1].mac rxPkOk:vector(packetBytes) ETV
attr interpolationmode none
attr source rxPkOk
attr title "packets received OK, vector(packetBytes)"
vector 373 SolutionNetwork.switch10.eth[1].mac passedUpPk:vector(packetBytes) ETV
attr interpolationmode none
attr source packetSentToUpper
attr title "packets passed to higher layer, vector(packetBytes)"
vector 374 SolutionNetwork.ES4.eth.mac rxPkOk:vector(packetBytes) ETV
attr interpolationmode none
attr source rxPkOk
attr title "packets received OK, vector(packetBytes)"
vector 375 SolutionNetwork.ES4.eth.mac passedUpPk:vector(packetBytes) ETV
attr interpolationmode none
attr source packetSentToUpper
attr title "packets passed to higher layer, vector(packetBytes)"
vector 376 SolutionNetwork.switch14.eth[0].mac rxPkOk:vector(packetBytes) ETV
attr interpolationmode none
attr source rxPkOk
attr title "packets received OK, vector(packetBytes)"
vector 377 SolutionNetwork.switch14.eth[0].mac passedUpPk:vector(packetBytes) ETV
attr interpolationmode none
attr source packetSentToUpper
attr title "packets passed to higher layer, vector(packetBytes)"
vector 378 SolutionNetwork.switch15.eth[0].mac rxPkOk:vector(packetBytes) ETV
attr interpolationmode none
attr source rxPkOk
attr title "packets received OK, vector(packetBytes)"
vector 379 SolutionNetwork.switch15.eth[0].mac passedUpPk:vector(packetBytes) ETV
attr interpolationmode none
attr source packetSentToUpper
attr title "packets passed to higher layer, vector(packetBytes)"
vector 380 SolutionNetwork.switch10.eth[4].mac rxPkOk:vector(packetBytes) ETV
attr interpolationmode none
attr source rxPkOk
attr title "packets received OK, vector(packetBytes)"
vector 381 SolutionNetwork.switch10.eth[4].mac passedUpPk:vector(packetBytes) ETV
attr interpolationmode none
attr source packetSentToUpper
attr title "packets passed to higher layer, vector(packetBytes)"
vector 382 SolutionNetwork.ES1.srv packetReceived:vector(packetBytes) ETV
attr interpolationmode none
attr source packetReceived
attr title "packets received, vector(packetBytes)"
vector 383 SolutionNetwork.ES1.srv packetSent:vector(packetBytes) ETV
attr interpolationmode none
attr source packetSent
attr title "packets sent, vector(packetBytes)"
vector 384 SolutionNetwork.switch10.eth[0].mac packetReceivedFromUpper:vector(packetBytes) ETV
attr interpolationmode none
attr source packetReceivedFromUpper
attr title "packet bytes from higher layer, vector(packetBytes)"
vector 385 SolutionNetwork.switch10.eth[0].mac.queue packetPushed:vector(packetBytes) ETV
attr interpolationmode none
attr title "packet pushed, vector(packetBytes)"
vector 386 SolutionNetwork.switch10.eth[0].mac.queue queueLength:vector ETV
attr interpolationmode sample-hold
attr source "count(packetPushed) - count(packetPopped) - count(packetRemoved) - count(packetDropped)"
attr title "queue length, vector"
vector 387 SolutionNetwork.switch10.eth[0].mac.queue packetPopped:vector(packetBytes) ETV
attr interpolationmode none
attr title "packet popped, vector(packetBytes)"
vector 388 SolutionNetwork.switch10.eth[0].mac.queue queueingTime:vector ETV
attr interpolationmode none
attr source queueingTime(packetPopped)
attr title "queueing times, vector"
attr unit s
vector 389 SolutionNetwork.ES4.srv packetReceived:vector(packetBytes) ETV
attr interpolationmode none
attr source packetReceived
attr title "packets received, vector(packetBytes)"
vector 390 SolutionNetwork.ES4.srv packetSent:vector(packetBytes) ETV
attr interpolationmode none
attr source packetSent
[...]
503	46546	3.525211842194	109
503	48322	3.654417873993	109
503	49352	3.660541305992	109
503	49954	3.665826511578	109
503	51459	3.679025901603	109
503	53635	3.810674553522	109
503	53786	3.811610566275	109
503	55270	3.823527223709	109
503	56341	3.834824363499	109
503	58829	3.96374455409	109
503	58873	3.964420566843	109
503	60550	3.977650656267	109
503	61744	3.992812930458	109
503	63550	4.116288051449	109
503	63947	4.120461479341	109
503	65688	4.136757461878	109
503	66730	4.146342494504	109
503	69056	4.271988759824	109
503	69100	4.272184187716	109
503	71229	4.294368809177	109
503	71583	4.297280826034	109
503	73563	4.42245353639	109
503	74280	4.429970039699	109
503	76281	4.446410072049	109
503	76587	4.449413972639	109
503	78439	4.57451571498	109
503	79220	4.582410219766	109
503	80956	4.599439735677	109
503	81483	4.603719311984	109
503	83641	4.726995749755	109
503	84223	4.733668020771	109
503	85957	4.751925574427	109
503	86544	4.758465002322	109
503	88299	4.879183564768	109
503	88834	4.885137581628	109
503	90395	4.904502174753	109
503	91497	4.917170722866	109
503	93524	5.037316652783	109
503	94338	5.045117719001	109
503	95566	5.055643632816	109
504	1058	0.00606744	109
504	1475	0.0080852	109
504	1703	0.00909456	109
504	1774	0.00910488	109
504	1969	0.0101068	109
504	2127	0.01111328	109
504	2182	0.0111236	109
504	2337	0.01212552	109
504	2372	0.01213584	109
504	2624	0.0141452	109
504	8983	1.509277443433	109
504	9170	1.511306483433	109
504	9247	1.512311809405	109
504	9396	1.514340849405	109
504	11218	1.662711998025	109
504	11431	1.664741038025	109
504	11962	1.668998203611	109
504	12178	1.671027243611	109
504	14104	1.81690084627	109
504	14326	1.81892988627	109
504	14346	1.819244441108	109
504	14541	1.821273481108	109
504	16917	1.968940530525	109
504	17037	1.969984125363	109
504	17111	1.970969570525	109
504	17331	1.972013165363	109
504	19391	2.119017572652	109
504	19576	2.121046612652	109
504	19684	2.122378555189	109
504	19870	2.124407595189	109
504	21717	2.269874706397	109
504	21925	2.271903746397	109
504	22553	2.279449688934	109
504	22660	2.281478728934	109
504	24279	2.42668584322	109
504	24499	2.42871488322	109
504	25302	2.439122846415	109
504	25440	2.441151886415	109
504	26672	2.577400137954	109
504	26803	2.579429177954	109
504	27990	2.598680097725	109
504	28152	2.600709137725	109
504	29473	2.729982958484	109
504	29605	2.732011998484	109
504	30741	2.752126296787	109
504	30820	2.754155336787	109
504	32046	2.883719492576	109
504	32177	2.885748532576	109
504	33267	2.903995493422	109
504	33363	2.906024533422	109
504	35012	3.033927512195	109
504	35104	3.035956552195	109
504	36069	3.054124286751	109
504	36160	3.056153326751	109
504	37935	3.191183170181	109
504	38027	3.193212210181	109
504	38997	3.210470948978	109
504	39108	3.212499988978	109
504	40809	3.34233515005	109
504	40901	3.34436419005	109
504	41866	3.365331258566	109
504	41994	3.367360298566	109
504	43446	3.497047259877	109
504	43587	3.499076299877	109
504	44969	3.509274452614	109
504	45175	3.511303492614	109
504	45257	3.512305510527	109
504	45544	3.514334550527	109
504	46538	3.525201522194	109
504	46631	3.527230562194	109
504	48315	3.654407553993	109
504	48636	3.656436593993	109
504	49346	3.660530985992	109
504	49609	3.662560025992	109
504	49946	3.665816191578	109
504	50260	3.667845231578	109
504	50476	3.669097259877	109
504	51451	3.679015581603	109
504	51542	3.681044621603	109
504	53629	3.810664233522	109
504	53780	3.811600246275	109
504	54048	3.812693273522	109
504	54148	3.813629286275	109
504	55262	3.823516903709	109
504	55563	3.825545943709	109
504	56333	3.834814043499	109
504	56417	3.836843083499	109
504	58823	3.96373423409	109
504	58867	3.964410246843	109
504	59083	3.96576327409	109
504	59127	3.966439286843	109
504	60542	3.977640336267	109
504	60645	3.979669376267	109
504	61736	3.992802610458	109
504	61864	3.994831650458	109
504	63543	4.116277731449	109
504	63738	4.118306771449	109
504	63941	4.120451159341	109
504	64094	4.122480199341	109
504	65680	4.136747141878	109
504	65992	4.138776181878	109
504	66722	4.146332174504	109
504	66977	4.148361214504	109
504	69050	4.271978439824	109
504	69094	4.272173867716	109
504	69260	4.274007479824	109
504	69353	4.274202907716	109
504	71221	4.294358489177	109
504	71542	4.296387529177	109
504	71575	4.297270506034	109
504	71724	4.299299546034	109
504	73557	4.42244321639	109
504	73765	4.42447225639	109
504	74274	4.429959719699	109
504	74418	4.431988759699	109
504	76271	4.446399752049	109
504	76540	4.448428792049	109
504	76574	4.449403652639	109
504	76728	4.451432692639	109
504	78433	4.57450539498	109
504	78641	4.57653443498	109
504	79214	4.582399899766	109
504	79346	4.584428939766	109
504	80948	4.599429415677	109
504	81277	4.601458455677	109
504	81475	4.603708991984	109
504	81636	4.605738031984	109
504	83635	4.726985429755	109
504	83843	4.729014469755	109
504	84217	4.733657700771	109
504	84371	4.735686740771	109
504	85949	4.751915254427	109
504	86184	4.753944294427	109
504	86536	4.758454682322	109
504	86669	4.760483722322	109
504	88292	4.879173244768	109
504	88543	4.881202284768	109
504	88828	4.885127261628	109
504	88974	4.887156301628	109
504	90387	4.904491854753	109
504	90604	4.906520894753	109
504	91489	4.917160402866	109
504	91582	4.919189442866	109
504	93518	5.037306332783	109
504	93726	5.039335372783	109
504	94332	5.045107399001	109
504	94578	5.047136439001	109
504	95558	5.055633312816	109
504	95757	5.057662352816	109
505	1140	0.00706648	109
505	1808	0.01009456	109
505	1923	0.01010488	109
505	2090	0.0111068	109
505	2441	0.01312648	109
505	9070	1.510287763433	109
505	9320	1.513322129405	109
505	11321	1.663722318025	109
505	12033	1.670008523611	109
505	14231	1.81791116627	109
505	14465	1.820254761108	109
505	17013	1.969950850525	109
505	17126	1.970994445363	109
505	19483	2.120027892652	109
505	19796	2.123388875189	109
505	21818	2.270885026397	109
505	22605	2.280460008934	109
505	24394	2.42769616322	109
505	25352	2.440133166415	109
505	26754	2.578410457954	109
505	28111	2.599690417725	109
505	29516	2.730993278484	109
505	30779	2.753136616787	109
505	32089	2.884729812576	109
505	33305	2.905005813422	109
505	35055	3.034937832195	109
505	36112	3.055134606751	109
505	37978	3.192193490181	109
505	39042	3.211481268978	109
505	40852	3.34334547005	109
505	41953	3.366341578566	109
505	43538	3.498057579877	109
505	45068	3.510284772614	109
505	45412	3.513315830527	109
505	46583	3.526211842194	109
505	48472	3.655417873993	109
505	49478	3.661541305992	109
505	50103	3.666826511578	109
505	51496	3.680025901603	109
505	53823	3.811674553522	109
505	53999	3.812610566275	109
505	55440	3.824527223709	109
505	56376	3.835824363499	109
505	58910	3.96474455409	109
505	58973	3.965420566843	109
505	60594	3.978650656267	109
505	61823	3.993812930458	109
505	63640	4.117288051449	109
505	64017	4.121461479341	109
505	65857	4.137757461878	109
505	66880	4.147342494504	109
505	69144	4.272988759824	109
505	69186	4.273184187716	109
505	71377	4.295368809177	109
505	71648	4.298280826034	109
505	73658	4.42345353639	109
505	74343	4.430970039699	109
505	76353	4.447410072049	109
505	76647	4.450413972639	109
505	78534	4.57551571498	109
505	79278	4.583410219766	109
505	81089	4.600439735677	109
505	81555	4.604719311984	109
505	83736	4.727995749755	109
505	84286	4.734668020771	109
505	86043	4.752925574427	109
505	86602	4.759465002322	109
505	88394	4.880183564768	109
505	88899	4.886137581628	109
505	90507	4.905502174753	109
505	91534	4.918170722866	109
505	93619	5.038316652783	109
505	94452	5.046117719001	109
505	95610	5.056643632816	109
506	1140	0.00706648	109
506	1808	0.01009456	109
506	1923	0.01010488	109
506	2090	0.0111068	109
506	2441	0.01312648	109
506	9070	1.510287763433	109
506	9320	1.513322129405	109
506	11321	1.663722318025	109
506	12033	1.670008523611	109
506	14231	1.81791116627	109
506	14465	1.820254761108	109
506	17013	1.969950850525	109
506	17126	1.970994445363	109
506	19483	2.120027892652	109
506	19796	2.123388875189	109
506	21818	2.270885026397	109
506	22605	2.280460008934	109
506	24394	2.42769616322	109
506	25352	2.440133166415	109
506	26754	2.578410457954	109
506	28111	2.599690417725	109
506	29516	2.730993278484	109
506	30779	2.753136616787	109
506	32089	2.884729812576	109
506	33305	2.905005813422	109
506	35055	3.034937832195	109
506	36112	3.055134606751	109
506	37978	3.192193490181	109
506	39042	3.211481268978	109
506	40852	3.34334547005	109
506	41953	3.366341578566	109
506	43538	3.498057579877	109
506	45068	3.510284772614	109
506	45412	3.513315830527	109
506	46583	3.526211842194	109
506	48472	3.655417873993	109
506	49478	3.661541305992	109
506	50103	3.666826511578	109
506	51496	3.680025901603	109
506	53823	3.811674553522	109
506	53999	3.812610566275	109
506	55440	3.824527223709	109
506	56376	3.835824363499	109
506	58910	3.96474455409	109
506	58973	3.965420566843	109
506	60594	3.978650656267	109
506	61823	3.993812930458	109
506	63640	4.117288051449	109
506	64017	4.121461479341	109
506	65857	4.137757461878	109
506	66880	4.147342494504	109
506	69144	4.272988759824	109
506	69186	4.273184187716	109
506	71377	4.295368809177	109
506	71648	4.298280826034	109
506	73658	4.42345353639	109
506	74343	4.430970039699	109
506	76353	4.447410072049	109
506	76647	4.450413972639	109
506	78534	4.57551571498	109
506	79278	4.583410219766	109
506	81089	4.600439735677	109
506	81555	4.604719311984	109
506	83736	4.727995749755	109
506	84286	4.734668020771	109
506	86043	4.752925574427	109
506	86602	4.759465002322	109
506	88394	4.880183564768	109
506	88899	4.886137581628	109
506	90507	4.905502174753	109
506	91534	4.918170722866	109
506	93619	5.038316652783	109
506	94452	5.046117719001	109
506	95610	5.056643632816	109
507	1176	0.00706744	109
507	1592	0.0090852	109
507	1809	0.01009456	109
507	1924	0.01010488	109
507	2093	0.0111068	109
507	2216	0.01211328	109
507	2303	0.0121236	109
507	2424	0.01312552	109
507	2487	0.01313584	109
507	2702	0.0151452	109
507	9054	1.510277443433	109
507	9242	1.512306483433	109
507	9307	1.513311809405	109
507	9451	1.515340849405	109
507	11314	1.663711998025	109
507	11529	1.665741038025	109
507	12026	1.669998203611	109
507	12226	1.672027243611	109
507	14224	1.81790084627	109
507	14444	1.81992988627	109
507	14458	1.820244441108	109
507	14603	1.822273481108	109
507	17005	1.969940530525	109
507	17119	1.970984125363	109
507	17304	1.971969570525	109
507	17397	1.973013165363	109
507	19476	2.120017572652	109
507	19659	2.122046612652	109
507	19789	2.123378555189	109
507	19927	2.125407595189	109
507	21811	2.270874706397	109
507	22018	2.272903746397	109
507	22598	2.280449688934	109
507	22703	2.282478728934	109
507	24387	2.42768584322	109
507	24592	2.42971488322	109
507	25345	2.440122846415	109
507	25474	2.442151886415	109
507	26747	2.578400137954	109
507	26840	2.580429177954	109
507	28104	2.599680097725	109
507	28181	2.601709137725	109
507	29509	2.730982958484	109
507	29642	2.733011998484	109
507	30772	2.753126296787	109
507	30849	2.755155336787	109
507	32082	2.884719492576	109
507	32214	2.886748532576	109
507	33298	2.904995493422	109
507	33414	2.907024533422	109
507	35048	3.034927512195	109
507	35141	3.036956552195	109
507	36105	3.055124286751	109
507	36292	3.057153326751	109
507	37971	3.192183170181	109
507	38064	3.194212210181	109
507	39035	3.211470948978	109
507	39215	3.213499988978	109
507	40845	3.34333515005	109
507	40938	3.34536419005	109
507	41946	3.366331258566	109
507	42023	3.368360298566	109
507	43531	3.498047259877	109
507	43666	3.500076299877	109
507	45052	3.510274452614	109
507	45252	3.512303492614	109
507	45399	3.513305510527	109
507	45655	3.515334550527	109
507	46576	3.526201522194	109
507	46665	3.528230562194	109
507	48465	3.655407553993	109
507	48786	3.657436593993	109
507	49471	3.661530985992	109
507	49721	3.663560025992	109
507	50096	3.666816191578	109
507	50394	3.668845231578	109
507	50608	3.670097259877	109
507	51489	3.680015581603	109
507	51571	3.682044621603	109
507	53816	3.811664233522	109
507	53992	3.812600246275	109
507	54185	3.813693273522	109
507	54285	3.814629286275	109
507	55433	3.824516903709	109
507	55668	3.826545943709	109
507	56369	3.835814043499	109
507	56446	3.837843083499	109
507	58903	3.96473423409	109
507	58966	3.965410246843	109
507	59220	3.96676327409	109
507	59311	3.967439286843	109
507	60587	3.978640336267	109
507	60745	3.980669376267	109
507	61816	3.993802610458	109
507	61893	3.995831650458	109
507	63633	4.117277731449	109
507	63819	4.119306771449	109
507	64010	4.121451159341	109
507	64157	4.123480199341	109
507	65850	4.137747141878	109
507	66083	4.139776181878	109
507	66873	4.147332174504	109
507	67011	4.149361214504	109
507	69135	4.272978439824	109
507	69179	4.273173867716	109
507	69419	4.275007479824	109
507	69461	4.275202907716	109
507	71364	4.295358489177	109
507	71613	4.297387529177	109
507	71641	4.298270506034	109
507	71788	4.300299546034	109
507	73651	4.42344321639	109
507	73911	4.42547225639	109
507	74336	4.430959719699	109
507	74476	4.432988759699	109
507	76340	4.447399752049	109
507	76609	4.449428792049	109
507	76639	4.450403652639	109
507	76787	4.452432692639	109
507	78527	4.57550539498	109
507	78736	4.57753443498	109
507	79271	4.583399899766	109
507	79397	4.585428939766	109
507	81082	4.600429415677	109
507	81350	4.602458455677	109
507	81548	4.604708991984	109
507	81796	4.606738031984	109
507	83729	4.727985429755	109
507	83936	4.730014469755	109
507	84279	4.734657700771	109
507	84461	4.736686740771	109
507	86036	4.752915254427	109
507	86260	4.754944294427	109
507	86595	4.759454682322	109
507	86719	4.761483722322	109
507	88387	4.880173244768	109
507	88629	4.882202284768	109
507	88892	4.886127261628	109
507	89032	4.888156301628	109
507	90500	4.905491854753	109
507	90689	4.907520894753	109
507	91527	4.918160402866	109
507	91616	4.920189442866	109
507	93612	5.038306332783	109
507	93821	5.040335372783	109
507	94445	5.046107399001	109
507	94687	5.048136439001	109
507	95603	5.056633312816	109
508	1176	0.00706744	109
508	1592	0.0090852	109
508	1809	0.01009456	109
508	1924	0.01010488	109
508	2093	0.0111068	109
508	2216	0.01211328	109
508	2303	0.0121236	109
508	2424	0.01312552	109
508	2487	0.01313584	109
508	2702	0.0151452	109
508	9054	1.510277443433	109
508	9242	1.512306483433	109
508	9307	1.513311809405	109
508	9451	1.515340849405	109
508	11314	1.663711998025	109
508	11529	1.665741038025	109
508	12026	1.669998203611	109
508	12226	1.672027243611	109
508	14224	1.81790084627	109
508	14444	1.81992988627	109
508	14458	1.820244441108	109
508	14603	1.822273481108	109
508	17005	1.969940530525	109
508	17119	1.970984125363	109
508	17304	1.971969570525	109
508	17397	1.973013165363	109
508	19476	2.120017572652	109
508	19659	2.122046612652	109
508	19789	2.123378555189	109
508	19927	2.125407595189	109
508	21811	2.270874706397	109
508	22018	2.272903746397	109
508	22598	2.280449688934	109
508	22703	2.282478728934	109
508	24387	2.42768584322	109
508	24592	2.42971488322	109
508	25345	2.440122846415	109
508	25474	2.442151886415	109
508	26747	2.578400137954	109
508	26840	2.580429177954	109
508	28104	2.599680097725	109
508	28181	2.601709137725	109
508	29509	2.730982958484	109
508	29642	2.733011998484	109
508	30772	2.753126296787	109
508	30849	2.755155336787	109
508	32082	2.884719492576	109
508	32214	2.886748532576	109
508	33298	2.904995493422	109
508	33414	2.907024533422	109
508	35048	3.034927512195	109
508	35141	3.036956552195	109
508	36105	3.055124286751	109
508	36292	3.057153326751	109
508	37971	3.192183170181	109
508	38064	3.194212210181	109
508	39035	3.211470948978	109
508	39215	3.213499988978	109
508	40845	3.34333515005	109
508	40938	3.34536419005	109
508	41946	3.366331258566	109
508	42023	3.368360298566	109
508	43531	3.498047259877	109
508	43666	3.500076299877	109
508	45052	3.510274452614	109
508	45252	3.512303492614	109
508	45399	3.513305510527	109
508	45655	3.515334550527	109
508	46576	3.526201522194	109
508	46665	3.528230562194	109
508	48465	3.655407553993	109
508	48786	3.657436593993	109
508	49471	3.661530985992	109
508	49721	3.663560025992	109
508	50096	3.666816191578	109
508	50394	3.668845231578	109
508	50608	3.670097259877	109
508	51489	3.680015581603	109
508	51571	3.682044621603	109
508	53816	3.811664233522	109
508	53992	3.812600246275	109
508	54185	3.813693273522	109
508	54285	3.814629286275	109
508	55433	3.824516903709	109
508	55668	3.826545943709	109
508	56369	3.835814043499	109
508	56446	3.837843083499	109
508	58903	3.96473423409	109
508	58966	3.965410246843	109
508	59220	3.96676327409	109
508	59311	3.967439286843	109
508	60587	3.978640336267	109
508	60745	3.980669376267	109
508	61816	3.993802610458	109
508	61893	3.995831650458	109
508	63633	4.117277731449	109
508	63819	4.119306771449	109
508	64010	4.121451159341	109
508	64157	4.123480199341	109
508	65850	4.137747141878	109
508	66083	4.139776181878	109
508	66873	4.147332174504	109
508	67011	4.149361214504	109
508	69135	4.272978439824	109
508	69179	4.273173867716	109
508	69419	4.275007479824	109
508	69461	4.275202907716	109
508	71364	4.295358489177	109
508	71613	4.297387529177	109
508	71641	4.298270506034	109
508	71788	4.300299546034	109
508	73651	4.42344321639	109
508	73911	4.42547225639	109
508	74336	4.430959719699	109
508	74476	4.432988759699	109
508	76340	4.447399752049	109
508	76609	4.449428792049	109
508	76639	4.450403652639	109
508	76787	4.452432692639	109
508	78527	4.57550539498	109
508	78736	4.57753443498	109
508	79271	4.583399899766	109
508	79397	4.585428939766	109
508	81082	4.600429415677	109
508	81350	4.602458455677	109
508	81548	4.604708991984	109
508	81796	4.606738031984	109
508	83729	4.727985429755	109
508	83936	4.730014469755	109
508	84279	4.734657700771	109
508	84461	4.736686740771	109
508	86036	4.752915254427	109
508	86260	4.754944294427	109
508	86595	4.759454682322	109
508	86719	4.761483722322	109
508	88387	4.880173244768	109
508	88629	4.882202284768	109
508	88892	4.886127261628	109
508	89032	4.888156301628	109
508	90500	4.905491854753	109
508	90689	4.907520894753	109
508	91527	4.918160402866	109
508	91616	4.920189442866	109
508	93612	5.038306332783	109
508	93821	5.040335372783	109
508	94445	5.046107399001	109
508	94687	5.048136439001	109
508	95603	5.056633312816	109
509	5853	1	30.1
509	17934	2	63.4333
509	34020	3	96.7666
509	62096	4	130.0999
509	92193	5	163.4332
510	5853	1	38
510	17934	2	38
510	34020	3	38
510	62096	4	38
510	92193	5	38
511	5853	1	2519.9
511	17934	2	2486.5667
511	34020	3	2453.2334
511	62096	4	2419.9001
511	92193	5	2386.5668
512	5853	1	17
512	17934	2	17
512	34020	3	17
512	62096	4	17
512	92193	5	17
513	17934	2	33.3333
513	34020	3	33.3333
513	62096	4	33.3333
513	92193	5	33.3333
514	17934	2	33.3333
514	34020	3	33.3333
514	62096	4	33.3333
514	92193	5	33.3333
515	34020	3	30.1
515	62096	4	63.4333
515	92193	5	96.7666
516	34020	3	38
516	62096	4	38
516	92193	5	38
517	34020	3	2519.9
517	62096	4	2486.5667
517	92193	5	2453.2334
518	34020	3	17
518	62096	4	17
518	92193	5	17
519	34020	3	0
519	62096	4	0
519	92193	5	0
520	34020	3	6.1394281276903
520	62096	4	6.1394281276903
520	92193	5	6.1394281276903
521	34020	3	0
521	62096	4	0
521	92193	5	0
522	34020	3	6.1394281276903
522	62096	4	6.1394281276903
522	92193	5	6.1394281276903
523	62096	4	33.3333
523	92193	5	33.3333
524	62096	4	33.3333
524	92193	5	33.3333
525	92193	5	2519.9
526	92193	5	17
527	92193	5	30.1
528	92193	5	38
529	92193	5	0
530	92193	5	6.1394281276903
531	92193	5	0
532	92193	5	6.1394281276903

