version 2
run Default-0-20210718-14:49:04-12792
attr configname Default
attr datetime 20210718-14:49:04
attr experiment Default
attr inifile omnetpp.ini
attr iterationvars ""
attr iterationvarsf ""
attr measurement ""
attr network SolutionNetwork
attr processid 12792
attr repetition 0
attr replication #0
attr resultdir results
attr runnumber 0
attr seedset 12792
param *.playgroundSizeX 2600m
param *.playgroundSizeY 2500m
param *.playgroundSizeZ 50m
param *.annotations.draw true
param *.obstacles.debug false
param *.manager.updateInterval 1s
param *.manager.host "\"localhost\""
param *.manager.port 9999
param *.manager.autoShutdown true
param *.manager.launchConfig "xmldoc(\"Solutions.launchd.xml\")"
param *.rsu[0].mobility.x 250
param *.rsu[0].mobility.y 100
param *.rsu[0].mobility.z 0
param *.rsu[1].mobility.x 750
param *.rsu[1].mobility.y 100
param *.rsu[1].mobility.z 0
param *.rsu[2].mobility.x 1250
param *.rsu[2].mobility.y 100
param *.rsu[2].mobility.z 0
param *.rsu[3].mobility.x 1750
param *.rsu[3].mobility.y 100
param *.rsu[3].mobility.z 0
param *.rsu[4].mobility.x 2250
param *.rsu[4].mobility.y 100
param *.rsu[4].mobility.z 0
param *.rsu[*].applType "\"RSUClusterAppBestFit\""
param *.rsu[*].appl.headerLength "80 bit"
param *.rsu[*].appl.sendBeacons true
param *.rsu[*].appl.dataOnSch false
param *.rsu[*].appl.beaconInterval 0s
param *.rsu[*].appl.beaconUserPriority 7
param *.rsu[*].appl.dataUserPriority 5
param *.rsu[*].nic.phy80211p.antennaOffsetZ "0 m"
param *.connectionManager.sendDirect true
param *.connectionManager.maxInterfDist 2600m
param *.connectionManager.drawMaxIntfDist false
param *.**.nic.mac1609_4.useServiceChannel false
param *.**.nic.mac1609_4.txPower 50mW
param *.**.nic.mac1609_4.bitrate 12Mbps
param *.**.nic.phy80211p.minPowerLevel -110dBm
param *.**.nic.phy80211p.allowTxDuringRx true
param *.**.nic.phy80211p.useNoiseFloor true
param *.**.nic.phy80211p.noiseFloor -98dBm
param *.**.nic.phy80211p.decider "xmldoc(\"config.xml\")"
param *.**.nic.phy80211p.analogueModels "xmldoc(\"config.xml\")"
param *.**.nic.phy80211p.usePropagationDelay true
param *.**.nic.phy80211p.antenna "xmldoc(\"antenna.xml\", \"/root/Antenna[@id='monopole']\")"
param *.node[*].nic.phy80211p.antennaOffsetY "0 m"
param *.node[*].nic.phy80211p.antennaOffsetZ "1.895 m"
param *.node[*].applType "\"VehicleApp\""
param *.node[*].appl.headerLength "80 bit"
param *.node[*].appl.sendBeacons false
param *.node[*].appl.dataOnSch false
param *.node[*].appl.beaconInterval 1s
param *.node[*].veinsmobility.x 0
param *.node[*].veinsmobility.y 0
param *.node[*].veinsmobility.z 0
param *.node[*].veinsmobility.setHostSpeed false
param *.node[*0].veinsmobility.accidentCount 0
param *.node[*0].veinsmobility.accidentStart 73s
param *.node[*0].veinsmobility.accidentDuration 50s
param *.ES0.srv.ClockFrequency 4
param *.ES1.srv.ClockFrequency 5
param *.ES2.srv.ClockFrequency 7
param *.ES3.srv.ClockFrequency 5
param *.ES4.srv.ClockFrequency 4
param *.ES5.srv.ClockFrequency 7
param *.ES6.srv.ClockFrequency 5
param *.ES7.srv.ClockFrequency 4

scalar SolutionNetwork.node[0].appl generatedWSMs 0
scalar SolutionNetwork.node[0].appl receivedWSMs 386
scalar SolutionNetwork.node[0].appl generatedBSMs 0
scalar SolutionNetwork.node[0].appl receivedBSMs 1978
scalar SolutionNetwork.node[0].appl generatedWSAs 0
scalar SolutionNetwork.node[0].appl receivedWSAs 0
scalar SolutionNetwork.node[0].appl "finished Task" 373
scalar SolutionNetwork.node[0].appl Tasks 481
scalar SolutionNetwork.node[0].appl avgResponseTime 0.149400458462
scalar SolutionNetwork.node[0].appl COMessages 858
scalar SolutionNetwork.node[0].appl "Handovered CO" 1
scalar SolutionNetwork.node[0].nic.phy80211p busyTime 0.061907306666665
scalar SolutionNetwork.node[0].nic.mac1609_4 ReceivedUnicastPackets 386
scalar SolutionNetwork.node[0].nic.mac1609_4 ReceivedBroadcasts 1978
scalar SolutionNetwork.node[0].nic.mac1609_4 SentPackets 913
scalar SolutionNetwork.node[0].nic.mac1609_4 SentAcknowledgements 0
scalar SolutionNetwork.node[0].nic.mac1609_4 RetriesExceeded 0
scalar SolutionNetwork.node[0].nic.mac1609_4 SNIRLostPackets 24671
scalar SolutionNetwork.node[0].nic.mac1609_4 RXTXLostPackets 48
scalar SolutionNetwork.node[0].nic.mac1609_4 TotalLostPackets 24719
scalar SolutionNetwork.node[0].nic.mac1609_4 DroppedPacketsInMac 0
scalar SolutionNetwork.node[0].nic.mac1609_4 TooLittleTime 0
scalar SolutionNetwork.node[0].nic.mac1609_4 TimesIntoBackoff 949
scalar SolutionNetwork.node[0].nic.mac1609_4 SlotsBackoff 1445
scalar SolutionNetwork.node[0].nic.mac1609_4 NumInternalContention 0
scalar SolutionNetwork.node[0].nic.mac1609_4 totalBusyTime 4.6829216757
scalar SolutionNetwork.node[0].nic.mac1609_4 retriesExceeded:count 0
attr source org_car2x_veins_modules_mac_sigRetriesExceeded
scalar SolutionNetwork.node[0].nic.mac1609_4 sentAcks:count 0
attr source org_car2x_veins_modules_mac_sigSentAck
scalar SolutionNetwork.node[0].nic.mac1609_4 sentPackets:count 913
attr source org_car2x_veins_modules_mac_sigSentPacket
scalar SolutionNetwork.node[0].nic.mac1609_4 collisions:count 0
attr source org_car2x_veins_modules_mac_sigCollision
scalar SolutionNetwork.node[0].nic.mac1609_4 channelBusy:timeavg 0.062438955676
attr source org_car2x_veins_modules_mac_sigChannelBusy
scalar SolutionNetwork.node[0].veinsmobility startTime 1
scalar SolutionNetwork.node[0].veinsmobility totalTime 74
scalar SolutionNetwork.node[0].veinsmobility stopTime 76
scalar SolutionNetwork.node[0].veinsmobility minSpeed 33.3333
scalar SolutionNetwork.node[0].veinsmobility maxSpeed 33.3333
scalar SolutionNetwork.node[0].veinsmobility totalDistance 2466.6642
scalar SolutionNetwork.node[0].veinsmobility totalCO2Emission 448.17825332139
scalar SolutionNetwork.node[1].appl generatedWSMs 0
scalar SolutionNetwork.node[1].appl receivedWSMs 403
scalar SolutionNetwork.node[1].appl generatedBSMs 0
scalar SolutionNetwork.node[1].appl receivedBSMs 1930
scalar SolutionNetwork.node[1].appl generatedWSAs 0
scalar SolutionNetwork.node[1].appl receivedWSAs 0
scalar SolutionNetwork.node[1].appl "finished Task" 389
scalar SolutionNetwork.node[1].appl Tasks 481
scalar SolutionNetwork.node[1].appl avgResponseTime 0.149088462723
scalar SolutionNetwork.node[1].appl COMessages 875
scalar SolutionNetwork.node[1].appl "Handovered CO" 1
scalar SolutionNetwork.node[1].nic.phy80211p busyTime 0.061919359999998
scalar SolutionNetwork.node[1].nic.mac1609_4 ReceivedUnicastPackets 403
scalar SolutionNetwork.node[1].nic.mac1609_4 ReceivedBroadcasts 1930
scalar SolutionNetwork.node[1].nic.mac1609_4 SentPackets 910
scalar SolutionNetwork.node[1].nic.mac1609_4 SentAcknowledgements 0
scalar SolutionNetwork.node[1].nic.mac1609_4 RetriesExceeded 0
scalar SolutionNetwork.node[1].nic.mac1609_4 SNIRLostPackets 24784
scalar SolutionNetwork.node[1].nic.mac1609_4 RXTXLostPackets 42
scalar SolutionNetwork.node[1].nic.mac1609_4 TotalLostPackets 24826
scalar SolutionNetwork.node[1].nic.mac1609_4 DroppedPacketsInMac 0
scalar SolutionNetwork.node[1].nic.mac1609_4 TooLittleTime 0
scalar SolutionNetwork.node[1].nic.mac1609_4 TimesIntoBackoff 950
scalar SolutionNetwork.node[1].nic.mac1609_4 SlotsBackoff 1426
scalar SolutionNetwork.node[1].nic.mac1609_4 NumInternalContention 0
scalar SolutionNetwork.node[1].nic.mac1609_4 totalBusyTime 4.682854806918
scalar SolutionNetwork.node[1].nic.mac1609_4 retriesExceeded:count 0
attr source org_car2x_veins_modules_mac_sigRetriesExceeded
scalar SolutionNetwork.node[1].nic.mac1609_4 sentAcks:count 0
attr source org_car2x_veins_modules_mac_sigSentAck
scalar SolutionNetwork.node[1].nic.mac1609_4 sentPackets:count 910
attr source org_car2x_veins_modules_mac_sigSentPacket
scalar SolutionNetwork.node[1].nic.mac1609_4 collisions:count 0
attr source org_car2x_veins_modules_mac_sigCollision
scalar SolutionNetwork.node[1].nic.mac1609_4 channelBusy:timeavg 0.06243806409224
attr source org_car2x_veins_modules_mac_sigChannelBusy
scalar SolutionNetwork.node[1].veinsmobility startTime 1
scalar SolutionNetwork.node[1].veinsmobility totalTime 74
scalar SolutionNetwork.node[1].veinsmobility stopTime 76
scalar SolutionNetwork.node[1].veinsmobility minSpeed 33.3333
scalar SolutionNetwork.node[1].veinsmobility maxSpeed 33.3333
scalar SolutionNetwork.node[1].veinsmobility totalDistance 2466.6642
scalar SolutionNetwork.node[1].veinsmobility totalCO2Emission 448.17825332139
scalar SolutionNetwork.node[2].appl generatedWSMs 0
scalar SolutionNetwork.node[2].appl receivedWSMs 385
scalar SolutionNetwork.node[2].appl generatedBSMs 0
scalar SolutionNetwork.node[2].appl receivedBSMs 1982
scalar SolutionNetwork.node[2].appl generatedWSAs 0
scalar SolutionNetwork.node[2].appl receivedWSAs 0
scalar SolutionNetwork.node[2].appl "finished Task" 376
scalar SolutionNetwork.node[2].appl Tasks 481
scalar SolutionNetwork.node[2].appl avgResponseTime 0.149094086411
scalar SolutionNetwork.node[2].appl COMessages 857
scalar SolutionNetwork.node[2].appl "Handovered CO" 0
scalar SolutionNetwork.node[2].nic.phy80211p busyTime 0.063666453333337
scalar SolutionNetwork.node[2].nic.mac1609_4 ReceivedUnicastPackets 385
scalar SolutionNetwork.node[2].nic.mac1609_4 ReceivedBroadcasts 1982
scalar SolutionNetwork.node[2].nic.mac1609_4 SentPackets 870
scalar SolutionNetwork.node[2].nic.mac1609_4 SentAcknowledgements 0
scalar SolutionNetwork.node[2].nic.mac1609_4 RetriesExceeded 0
scalar SolutionNetwork.node[2].nic.mac1609_4 SNIRLostPackets 24366
scalar SolutionNetwork.node[2].nic.mac1609_4 RXTXLostPackets 16
scalar SolutionNetwork.node[2].nic.mac1609_4 TotalLostPackets 24382
scalar SolutionNetwork.node[2].nic.mac1609_4 DroppedPacketsInMac 0
scalar SolutionNetwork.node[2].nic.mac1609_4 TooLittleTime 0
scalar SolutionNetwork.node[2].nic.mac1609_4 TimesIntoBackoff 894
scalar SolutionNetwork.node[2].nic.mac1609_4 SlotsBackoff 1333
scalar SolutionNetwork.node[2].nic.mac1609_4 NumInternalContention 0
scalar SolutionNetwork.node[2].nic.mac1609_4 totalBusyTime 4.804254
scalar SolutionNetwork.node[2].nic.mac1609_4 retriesExceeded:count 0
attr source org_car2x_veins_modules_mac_sigRetriesExceeded
scalar SolutionNetwork.node[2].nic.mac1609_4 sentAcks:count 0
attr source org_car2x_veins_modules_mac_sigSentAck
scalar SolutionNetwork.node[2].nic.mac1609_4 sentPackets:count 870
attr source org_car2x_veins_modules_mac_sigSentPacket
scalar SolutionNetwork.node[2].nic.mac1609_4 collisions:count 0
attr source org_car2x_veins_modules_mac_sigCollision
scalar SolutionNetwork.node[2].nic.mac1609_4 channelBusy:timeavg 0.064056720000004
attr source org_car2x_veins_modules_mac_sigChannelBusy
scalar SolutionNetwork.node[2].veinsmobility startTime 3
scalar SolutionNetwork.node[2].veinsmobility totalTime 74
scalar SolutionNetwork.node[2].veinsmobility stopTime 78
scalar SolutionNetwork.node[2].veinsmobility minSpeed 33.3333
scalar SolutionNetwork.node[2].veinsmobility maxSpeed 33.3333
scalar SolutionNetwork.node[2].veinsmobility totalDistance 2466.6642
scalar SolutionNetwork.node[2].veinsmobility totalCO2Emission 448.17825332139
scalar SolutionNetwork.node[3].appl generatedWSMs 0
scalar SolutionNetwork.node[3].appl receivedWSMs 376
scalar SolutionNetwork.node[3].appl generatedBSMs 0
scalar SolutionNetwork.node[3].appl receivedBSMs 1936
scalar SolutionNetwork.node[3].appl generatedWSAs 0
scalar SolutionNetwork.node[3].appl receivedWSAs 0
scalar SolutionNetwork.node[3].appl "finished Task" 360
scalar SolutionNetwork.node[3].appl Tasks 481
scalar SolutionNetwork.node[3].appl avgResponseTime 0.150890803822
scalar SolutionNetwork.node[3].appl COMessages 848
scalar SolutionNetwork.node[3].appl "Handovered CO" 0
scalar SolutionNetwork.node[3].nic.phy80211p busyTime 0.063665493333337
scalar SolutionNetwork.node[3].nic.mac1609_4 ReceivedUnicastPackets 376
scalar SolutionNetwork.node[3].nic.mac1609_4 ReceivedBroadcasts 1936
scalar SolutionNetwork.node[3].nic.mac1609_4 SentPackets 861
scalar SolutionNetwork.node[3].nic.mac1609_4 SentAcknowledgements 0
scalar SolutionNetwork.node[3].nic.mac1609_4 RetriesExceeded 0
scalar SolutionNetwork.node[3].nic.mac1609_4 SNIRLostPackets 24410
scalar SolutionNetwork.node[3].nic.mac1609_4 RXTXLostPackets 26
scalar SolutionNetwork.node[3].nic.mac1609_4 TotalLostPackets 24436
scalar SolutionNetwork.node[3].nic.mac1609_4 DroppedPacketsInMac 0
scalar SolutionNetwork.node[3].nic.mac1609_4 TooLittleTime 0
scalar SolutionNetwork.node[3].nic.mac1609_4 TimesIntoBackoff 888
scalar SolutionNetwork.node[3].nic.mac1609_4 SlotsBackoff 1320
scalar SolutionNetwork.node[3].nic.mac1609_4 NumInternalContention 0
scalar SolutionNetwork.node[3].nic.mac1609_4 totalBusyTime 4.804181
scalar SolutionNetwork.node[3].nic.mac1609_4 retriesExceeded:count 0
attr source org_car2x_veins_modules_mac_sigRetriesExceeded
scalar SolutionNetwork.node[3].nic.mac1609_4 sentAcks:count 0
attr source org_car2x_veins_modules_mac_sigSentAck
scalar SolutionNetwork.node[3].nic.mac1609_4 sentPackets:count 861
attr source org_car2x_veins_modules_mac_sigSentPacket
scalar SolutionNetwork.node[3].nic.mac1609_4 collisions:count 0
attr source org_car2x_veins_modules_mac_sigCollision
scalar SolutionNetwork.node[3].nic.mac1609_4 channelBusy:timeavg 0.064055746666671
attr source org_car2x_veins_modules_mac_sigChannelBusy
scalar SolutionNetwork.node[3].veinsmobility startTime 3
scalar SolutionNetwork.node[3].veinsmobility totalTime 74
scalar SolutionNetwork.node[3].veinsmobility stopTime 78
scalar SolutionNetwork.node[3].veinsmobility minSpeed 33.3333
scalar SolutionNetwork.node[3].veinsmobility maxSpeed 33.3333
scalar SolutionNetwork.node[3].veinsmobility totalDistance 2466.6642
scalar SolutionNetwork.node[3].veinsmobility totalCO2Emission 448.17825332139
scalar SolutionNetwork.node[4].appl generatedWSMs 0
scalar SolutionNetwork.node[4].appl receivedWSMs 376
scalar SolutionNetwork.node[4].appl generatedBSMs 0
scalar SolutionNetwork.node[4].appl receivedBSMs 1982
scalar SolutionNetwork.node[4].appl generatedWSAs 0
scalar SolutionNetwork.node[4].appl receivedWSAs 0
scalar SolutionNetwork.node[4].appl "finished Task" 362
scalar SolutionNetwork.node[4].appl Tasks 481
scalar SolutionNetwork.node[4].appl avgResponseTime 0.153494332043
scalar SolutionNetwork.node[4].appl COMessages 848
scalar SolutionNetwork.node[4].appl "Handovered CO" 0
scalar SolutionNetwork.node[4].nic.phy80211p busyTime 0.065069866666674
scalar SolutionNetwork.node[4].nic.mac1609_4 ReceivedUnicastPackets 376
scalar SolutionNetwork.node[4].nic.mac1609_4 ReceivedBroadcasts 1982
scalar SolutionNetwork.node[4].nic.mac1609_4 SentPackets 867
scalar SolutionNetwork.node[4].nic.mac1609_4 SentAcknowledgements 0
scalar SolutionNetwork.node[4].nic.mac1609_4 RetriesExceeded 0
scalar SolutionNetwork.node[4].nic.mac1609_4 SNIRLostPackets 23926
scalar SolutionNetwork.node[4].nic.mac1609_4 RXTXLostPackets 21
scalar SolutionNetwork.node[4].nic.mac1609_4 TotalLostPackets 23947
scalar SolutionNetwork.node[4].nic.mac1609_4 DroppedPacketsInMac 0
scalar SolutionNetwork.node[4].nic.mac1609_4 TooLittleTime 0
scalar SolutionNetwork.node[4].nic.mac1609_4 TimesIntoBackoff 908
scalar SolutionNetwork.node[4].nic.mac1609_4 SlotsBackoff 1352
scalar SolutionNetwork.node[4].nic.mac1609_4 NumInternalContention 0
scalar SolutionNetwork.node[4].nic.mac1609_4 totalBusyTime 4.908692861348
scalar SolutionNetwork.node[4].nic.mac1609_4 retriesExceeded:count 0
attr source org_car2x_veins_modules_mac_sigRetriesExceeded
scalar SolutionNetwork.node[4].nic.mac1609_4 sentAcks:count 0
attr source org_car2x_veins_modules_mac_sigSentAck
scalar SolutionNetwork.node[4].nic.mac1609_4 sentPackets:count 867
attr source org_car2x_veins_modules_mac_sigSentPacket
scalar SolutionNetwork.node[4].nic.mac1609_4 collisions:count 0
attr source org_car2x_veins_modules_mac_sigCollision
scalar SolutionNetwork.node[4].nic.mac1609_4 channelBusy:timeavg 0.065449238151314
attr source org_car2x_veins_modules_mac_sigChannelBusy
scalar SolutionNetwork.node[4].veinsmobility startTime 5
scalar SolutionNetwork.node[4].veinsmobility totalTime 74
scalar SolutionNetwork.node[4].veinsmobility stopTime 80
scalar SolutionNetwork.node[4].veinsmobility minSpeed 33.3333
scalar SolutionNetwork.node[4].veinsmobility maxSpeed 33.3333
scalar SolutionNetwork.node[4].veinsmobility totalDistance 2466.6642
scalar SolutionNetwork.node[4].veinsmobility totalCO2Emission 448.17825332139
scalar SolutionNetwork.node[5].appl generatedWSMs 0
scalar SolutionNetwork.node[5].appl receivedWSMs 397
scalar SolutionNetwork.node[5].appl generatedBSMs 0
scalar SolutionNetwork.node[5].appl receivedBSMs 1924
scalar SolutionNetwork.node[5].appl generatedWSAs 0
scalar SolutionNetwork.node[5].appl receivedWSAs 0
scalar SolutionNetwork.node[5].appl "finished Task" 377
scalar SolutionNetwork.node[5].appl Tasks 480
scalar SolutionNetwork.node[5].appl avgResponseTime 0.145804420586
scalar SolutionNetwork.node[5].appl COMessages 868
scalar SolutionNetwork.node[5].appl "Handovered CO" 0
scalar SolutionNetwork.node[5].nic.phy80211p busyTime 0.065036480000007
scalar SolutionNetwork.node[5].nic.mac1609_4 ReceivedUnicastPackets 397
scalar SolutionNetwork.node[5].nic.mac1609_4 ReceivedBroadcasts 1924
scalar SolutionNetwork.node[5].nic.mac1609_4 SentPackets 881
scalar SolutionNetwork.node[5].nic.mac1609_4 SentAcknowledgements 0
scalar SolutionNetwork.node[5].nic.mac1609_4 RetriesExceeded 0
scalar SolutionNetwork.node[5].nic.mac1609_4 SNIRLostPackets 24011
scalar SolutionNetwork.node[5].nic.mac1609_4 RXTXLostPackets 24
scalar SolutionNetwork.node[5].nic.mac1609_4 TotalLostPackets 24035
scalar SolutionNetwork.node[5].nic.mac1609_4 DroppedPacketsInMac 0
scalar SolutionNetwork.node[5].nic.mac1609_4 TooLittleTime 0
scalar SolutionNetwork.node[5].nic.mac1609_4 TimesIntoBackoff 905
scalar SolutionNetwork.node[5].nic.mac1609_4 SlotsBackoff 1407
scalar SolutionNetwork.node[5].nic.mac1609_4 NumInternalContention 0
scalar SolutionNetwork.node[5].nic.mac1609_4 totalBusyTime 4.908771058049
scalar SolutionNetwork.node[5].nic.mac1609_4 retriesExceeded:count 0
attr source org_car2x_veins_modules_mac_sigRetriesExceeded
scalar SolutionNetwork.node[5].nic.mac1609_4 sentAcks:count 0
attr source org_car2x_veins_modules_mac_sigSentAck
scalar SolutionNetwork.node[5].nic.mac1609_4 sentPackets:count 881
attr source org_car2x_veins_modules_mac_sigSentPacket
scalar SolutionNetwork.node[5].nic.mac1609_4 collisions:count 0
attr source org_car2x_veins_modules_mac_sigCollision
scalar SolutionNetwork.node[5].nic.mac1609_4 channelBusy:timeavg 0.065450280773994
attr source org_car2x_veins_modules_mac_sigChannelBusy
scalar SolutionNetwork.node[5].veinsmobility startTime 5
scalar SolutionNetwork.node[5].veinsmobility totalTime 74
scalar SolutionNetwork.node[5].veinsmobility stopTime 80
scalar SolutionNetwork.node[5].veinsmobility minSpeed 33.3333
scalar SolutionNetwork.node[5].veinsmobility maxSpeed 33.3333
scalar SolutionNetwork.node[5].veinsmobility totalDistance 2466.6642
scalar SolutionNetwork.node[5].veinsmobility totalCO2Emission 448.17825332139
scalar SolutionNetwork.node[6].appl generatedWSMs 0
scalar SolutionNetwork.node[6].appl receivedWSMs 384
scalar SolutionNetwork.node[6].appl generatedBSMs 0
scalar SolutionNetwork.node[6].appl receivedBSMs 1981
scalar SolutionNetwork.node[6].appl generatedWSAs 0
scalar SolutionNetwork.node[6].appl receivedWSAs 0
scalar SolutionNetwork.node[6].appl "finished Task" 370
scalar SolutionNetwork.node[6].appl Tasks 481
scalar SolutionNetwork.node[6].appl avgResponseTime 0.142550261561
scalar SolutionNetwork.node[6].appl COMessages 856
scalar SolutionNetwork.node[6].appl "Handovered CO" 0
scalar SolutionNetwork.node[6].nic.phy80211p busyTime 0.06615328000001
scalar SolutionNetwork.node[6].nic.mac1609_4 ReceivedUnicastPackets 384
scalar SolutionNetwork.node[6].nic.mac1609_4 ReceivedBroadcasts 1981
scalar SolutionNetwork.node[6].nic.mac1609_4 SentPackets 887
scalar SolutionNetwork.node[6].nic.mac1609_4 SentAcknowledgements 0
scalar SolutionNetwork.node[6].nic.mac1609_4 RetriesExceeded 0
scalar SolutionNetwork.node[6].nic.mac1609_4 SNIRLostPackets 23386
scalar SolutionNetwork.node[6].nic.mac1609_4 RXTXLostPackets 42
scalar SolutionNetwork.node[6].nic.mac1609_4 TotalLostPackets 23428
scalar SolutionNetwork.node[6].nic.mac1609_4 DroppedPacketsInMac 0
scalar SolutionNetwork.node[6].nic.mac1609_4 TooLittleTime 0
scalar SolutionNetwork.node[6].nic.mac1609_4 TimesIntoBackoff 922
scalar SolutionNetwork.node[6].nic.mac1609_4 SlotsBackoff 1391
scalar SolutionNetwork.node[6].nic.mac1609_4 NumInternalContention 0
scalar SolutionNetwork.node[6].nic.mac1609_4 totalBusyTime 4.994930231541
scalar SolutionNetwork.node[6].nic.mac1609_4 retriesExceeded:count 0
attr source org_car2x_veins_modules_mac_sigRetriesExceeded
scalar SolutionNetwork.node[6].nic.mac1609_4 sentAcks:count 0
attr source org_car2x_veins_modules_mac_sigSentAck
scalar SolutionNetwork.node[6].nic.mac1609_4 sentPackets:count 887
attr source org_car2x_veins_modules_mac_sigSentPacket
scalar SolutionNetwork.node[6].nic.mac1609_4 collisions:count 0
attr source org_car2x_veins_modules_mac_sigCollision
scalar SolutionNetwork.node[6].nic.mac1609_4 channelBusy:timeavg 0.066599069753891
attr source org_car2x_veins_modules_mac_sigChannelBusy
scalar SolutionNetwork.node[6].veinsmobility startTime 7
scalar SolutionNetwork.node[6].veinsmobility totalTime 74
scalar SolutionNetwork.node[6].veinsmobility stopTime 82
scalar SolutionNetwork.node[6].veinsmobility minSpeed 33.3333
scalar SolutionNetwork.node[6].veinsmobility maxSpeed 33.3333
scalar SolutionNetwork.node[6].veinsmobility totalDistance 2466.6642
scalar SolutionNetwork.node[6].veinsmobility totalCO2Emission 448.17825332139
scalar SolutionNetwork.node[7].appl generatedWSMs 0
scalar SolutionNetwork.node[7].appl receivedWSMs 400
scalar SolutionNetwork.node[7].appl generatedBSMs 0
scalar SolutionNetwork.node[7].appl receivedBSMs 1926
scalar SolutionNetwork.node[7].appl generatedWSAs 0
scalar SolutionNetwork.node[7].appl receivedWSAs 0
scalar SolutionNetwork.node[7].appl "finished Task" 383
scalar SolutionNetwork.node[7].appl Tasks 481
scalar SolutionNetwork.node[7].appl avgResponseTime 0.149989784877
scalar SolutionNetwork.node[7].appl COMessages 872
scalar SolutionNetwork.node[7].appl "Handovered CO" 0
scalar SolutionNetwork.node[7].nic.phy80211p busyTime 0.06611328000001
scalar SolutionNetwork.node[7].nic.mac1609_4 ReceivedUnicastPackets 400
scalar SolutionNetwork.node[7].nic.mac1609_4 ReceivedBroadcasts 1926
scalar SolutionNetwork.node[7].nic.mac1609_4 SentPackets 907
scalar SolutionNetwork.node[7].nic.mac1609_4 SentAcknowledgements 0
scalar SolutionNetwork.node[7].nic.mac1609_4 RetriesExceeded 0
scalar SolutionNetwork.node[7].nic.mac1609_4 SNIRLostPackets 23502
scalar SolutionNetwork.node[7].nic.mac1609_4 RXTXLostPackets 45
scalar SolutionNetwork.node[7].nic.mac1609_4 TotalLostPackets 23547
scalar SolutionNetwork.node[7].nic.mac1609_4 DroppedPacketsInMac 0
scalar SolutionNetwork.node[7].nic.mac1609_4 TooLittleTime 0
scalar SolutionNetwork.node[7].nic.mac1609_4 TimesIntoBackoff 932
scalar SolutionNetwork.node[7].nic.mac1609_4 SlotsBackoff 1395
scalar SolutionNetwork.node[7].nic.mac1609_4 NumInternalContention 0
scalar SolutionNetwork.node[7].nic.mac1609_4 totalBusyTime 4.995012966263
scalar SolutionNetwork.node[7].nic.mac1609_4 retriesExceeded:count 0
attr source org_car2x_veins_modules_mac_sigRetriesExceeded
scalar SolutionNetwork.node[7].nic.mac1609_4 sentAcks:count 0
attr source org_car2x_veins_modules_mac_sigSentAck
scalar SolutionNetwork.node[7].nic.mac1609_4 sentPackets:count 907
attr source org_car2x_veins_modules_mac_sigSentPacket
scalar SolutionNetwork.node[7].nic.mac1609_4 collisions:count 0
attr source org_car2x_veins_modules_mac_sigCollision
scalar SolutionNetwork.node[7].nic.mac1609_4 channelBusy:timeavg 0.066600172883517
attr source org_car2x_veins_modules_mac_sigChannelBusy
scalar SolutionNetwork.node[7].veinsmobility startTime 7
scalar SolutionNetwork.node[7].veinsmobility totalTime 74
scalar SolutionNetwork.node[7].veinsmobility stopTime 82
scalar SolutionNetwork.node[7].veinsmobility minSpeed 33.3333
scalar SolutionNetwork.node[7].veinsmobility maxSpeed 33.3333
scalar SolutionNetwork.node[7].veinsmobility totalDistance 2466.6642
scalar SolutionNetwork.node[7].veinsmobility totalCO2Emission 448.17825332139
scalar SolutionNetwork.node[8].appl generatedWSMs 0
scalar SolutionNetwork.node[8].appl receivedWSMs 406
scalar SolutionNetwork.node[8].appl generatedBSMs 0
scalar SolutionNetwork.node[8].appl receivedBSMs 1978
scalar SolutionNetwork.node[8].appl generatedWSAs 0
scalar SolutionNetwork.node[8].appl receivedWSAs 0
scalar SolutionNetwork.node[8].appl "finished Task" 387
scalar SolutionNetwork.node[8].appl Tasks 480
scalar SolutionNetwork.node[8].appl avgResponseTime 0.15198118913
scalar SolutionNetwork.node[8].appl COMessages 877
scalar SolutionNetwork.node[8].appl "Handovered CO" 0
scalar SolutionNetwork.node[8].nic.phy80211p busyTime 0.067106240000013
scalar SolutionNetwork.node[8].nic.mac1609_4 ReceivedUnicastPackets 406
scalar SolutionNetwork.node[8].nic.mac1609_4 ReceivedBroadcasts 1978
scalar SolutionNetwork.node[8].nic.mac1609_4 SentPackets 886
scalar SolutionNetwork.node[8].nic.mac1609_4 SentAcknowledgements 0
scalar SolutionNetwork.node[8].nic.mac1609_4 RetriesExceeded 0
scalar SolutionNetwork.node[8].nic.mac1609_4 SNIRLostPackets 22880
scalar SolutionNetwork.node[8].nic.mac1609_4 RXTXLostPackets 26
scalar SolutionNetwork.node[8].nic.mac1609_4 TotalLostPackets 22906
scalar SolutionNetwork.node[8].nic.mac1609_4 DroppedPacketsInMac 0
scalar SolutionNetwork.node[8].nic.mac1609_4 TooLittleTime 0
scalar SolutionNetwork.node[8].nic.mac1609_4 TimesIntoBackoff 922
scalar SolutionNetwork.node[8].nic.mac1609_4 SlotsBackoff 1388
scalar SolutionNetwork.node[8].nic.mac1609_4 NumInternalContention 0
scalar SolutionNetwork.node[8].nic.mac1609_4 totalBusyTime 5.063878184683
scalar SolutionNetwork.node[8].nic.mac1609_4 retriesExceeded:count 0
attr source org_car2x_veins_modules_mac_sigRetriesExceeded
scalar SolutionNetwork.node[8].nic.mac1609_4 sentAcks:count 0
attr source org_car2x_veins_modules_mac_sigSentAck
scalar SolutionNetwork.node[8].nic.mac1609_4 sentPackets:count 886
attr source org_car2x_veins_modules_mac_sigSentPacket
scalar SolutionNetwork.node[8].nic.mac1609_4 collisions:count 0
attr source org_car2x_veins_modules_mac_sigCollision
scalar SolutionNetwork.node[8].nic.mac1609_4 channelBusy:timeavg 0.067518375795786
attr source org_car2x_veins_modules_mac_sigChannelBusy
scalar SolutionNetwork.node[8].veinsmobility startTime 9
scalar SolutionNetwork.node[8].veinsmobility totalTime 74
scalar SolutionNetwork.node[8].veinsmobility stopTime 84
scalar SolutionNetwork.node[8].veinsmobility minSpeed 33.3333
scalar SolutionNetwork.node[8].veinsmobility maxSpeed 33.3333
scalar SolutionNetwork.node[8].veinsmobility totalDistance 2466.6642
scalar SolutionNetwork.node[8].veinsmobility totalCO2Emission 448.17825332139
scalar SolutionNetwork.node[9].appl generatedWSMs 0
scalar SolutionNetwork.node[9].appl receivedWSMs 387
scalar SolutionNetwork.node[9].appl generatedBSMs 0
scalar SolutionNetwork.node[9].appl receivedBSMs 1925
scalar SolutionNetwork.node[9].appl generatedWSAs 0
scalar SolutionNetwork.node[9].appl receivedWSAs 0
scalar SolutionNetwork.node[9].appl "finished Task" 376
scalar SolutionNetwork.node[9].appl Tasks 481
scalar SolutionNetwork.node[9].appl avgResponseTime 0.149515388129
scalar SolutionNetwork.node[9].appl COMessages 859
scalar SolutionNetwork.node[9].appl "Handovered CO" 0
scalar SolutionNetwork.node[9].nic.phy80211p busyTime 0.067137280000013
scalar SolutionNetwork.node[9].nic.mac1609_4 ReceivedUnicastPackets 387
scalar SolutionNetwork.node[9].nic.mac1609_4 ReceivedBroadcasts 1925
scalar SolutionNetwork.node[9].nic.mac1609_4 SentPackets 873
scalar SolutionNetwork.node[9].nic.mac1609_4 SentAcknowledgements 0
scalar SolutionNetwork.node[9].nic.mac1609_4 RetriesExceeded 0
scalar SolutionNetwork.node[9].nic.mac1609_4 SNIRLostPackets 23101
scalar SolutionNetwork.node[9].nic.mac1609_4 RXTXLostPackets 20
scalar SolutionNetwork.node[9].nic.mac1609_4 TotalLostPackets 23121
scalar SolutionNetwork.node[9].nic.mac1609_4 DroppedPacketsInMac 0
scalar SolutionNetwork.node[9].nic.mac1609_4 TooLittleTime 0
scalar SolutionNetwork.node[9].nic.mac1609_4 TimesIntoBackoff 906
scalar SolutionNetwork.node[9].nic.mac1609_4 SlotsBackoff 1373
scalar SolutionNetwork.node[9].nic.mac1609_4 NumInternalContention 0
scalar SolutionNetwork.node[9].nic.mac1609_4 totalBusyTime 5.06373806647
scalar SolutionNetwork.node[9].nic.mac1609_4 retriesExceeded:count 0
attr source org_car2x_veins_modules_mac_sigRetriesExceeded
scalar SolutionNetwork.node[9].nic.mac1609_4 sentAcks:count 0
attr source org_car2x_veins_modules_mac_sigSentAck
scalar SolutionNetwork.node[9].nic.mac1609_4 sentPackets:count 873
attr source org_car2x_veins_modules_mac_sigSentPacket
scalar SolutionNetwork.node[9].nic.mac1609_4 collisions:count 0
attr source org_car2x_veins_modules_mac_sigCollision
scalar SolutionNetwork.node[9].nic.mac1609_4 channelBusy:timeavg 0.067516507552946
attr source org_car2x_veins_modules_mac_sigChannelBusy
scalar SolutionNetwork.node[9].veinsmobility startTime 9
scalar SolutionNetwork.node[9].veinsmobility totalTime 74
scalar SolutionNetwork.node[9].veinsmobility stopTime 84
scalar SolutionNetwork.node[9].veinsmobility minSpeed 33.3333
scalar SolutionNetwork.node[9].veinsmobility maxSpeed 33.3333
scalar SolutionNetwork.node[9].veinsmobility totalDistance 2466.6642
scalar SolutionNetwork.node[9].veinsmobility totalCO2Emission 448.17825332139
scalar SolutionNetwork.node[10].appl generatedWSMs 0
scalar SolutionNetwork.node[10].appl receivedWSMs 391
scalar SolutionNetwork.node[10].appl generatedBSMs 0
scalar SolutionNetwork.node[10].appl receivedBSMs 1965
scalar SolutionNetwork.node[10].appl generatedWSAs 0
scalar SolutionNetwork.node[10].appl receivedWSAs 0
scalar SolutionNetwork.node[10].appl "finished Task" 379
scalar SolutionNetwork.node[10].appl Tasks 481
scalar SolutionNetwork.node[10].appl avgResponseTime 0.148870604605
scalar SolutionNetwork.node[10].appl COMessages 863
scalar SolutionNetwork.node[10].appl "Handovered CO" 0
scalar SolutionNetwork.node[10].nic.phy80211p busyTime 0.067774613333348
scalar SolutionNetwork.node[10].nic.mac1609_4 ReceivedUnicastPackets 391
scalar SolutionNetwork.node[10].nic.mac1609_4 ReceivedBroadcasts 1965
scalar SolutionNetwork.node[10].nic.mac1609_4 SentPackets 883
scalar SolutionNetwork.node[10].nic.mac1609_4 SentAcknowledgements 0
scalar SolutionNetwork.node[10].nic.mac1609_4 RetriesExceeded 0
scalar SolutionNetwork.node[10].nic.mac1609_4 SNIRLostPackets 22288
scalar SolutionNetwork.node[10].nic.mac1609_4 RXTXLostPackets 20
scalar SolutionNetwork.node[10].nic.mac1609_4 TotalLostPackets 22308
scalar SolutionNetwork.node[10].nic.mac1609_4 DroppedPacketsInMac 0
scalar SolutionNetwork.node[10].nic.mac1609_4 TooLittleTime 0
scalar SolutionNetwork.node[10].nic.mac1609_4 TimesIntoBackoff 913
scalar SolutionNetwork.node[10].nic.mac1609_4 SlotsBackoff 1335
scalar SolutionNetwork.node[10].nic.mac1609_4 NumInternalContention 0
scalar SolutionNetwork.node[10].nic.mac1609_4 totalBusyTime 5.111883297834
scalar SolutionNetwork.node[10].nic.mac1609_4 retriesExceeded:count 0
attr source org_car2x_veins_modules_mac_sigRetriesExceeded
scalar SolutionNetwork.node[10].nic.mac1609_4 sentAcks:count 0
attr source org_car2x_veins_modules_mac_sigSentAck
scalar SolutionNetwork.node[10].nic.mac1609_4 sentPackets:count 883
attr source org_car2x_veins_modules_mac_sigSentPacket
scalar SolutionNetwork.node[10].nic.mac1609_4 collisions:count 0
attr source org_car2x_veins_modules_mac_sigCollision
scalar SolutionNetwork.node[10].nic.mac1609_4 channelBusy:timeavg 0.068158443971135
attr source org_car2x_veins_modules_mac_sigChannelBusy
scalar SolutionNetwork.node[10].veinsmobility startTime 11
scalar SolutionNetwork.node[10].veinsmobility totalTime 74
scalar SolutionNetwork.node[10].veinsmobility stopTime 86
scalar SolutionNetwork.node[10].veinsmobility minSpeed 33.3333
scalar SolutionNetwork.node[10].veinsmobility maxSpeed 33.3333
scalar SolutionNetwork.node[10].veinsmobility totalDistance 2466.6642
scalar SolutionNetwork.node[10].veinsmobility totalCO2Emission 448.17825332139
scalar SolutionNetwork.node[11].appl generatedWSMs 0
scalar SolutionNetwork.node[11].appl receivedWSMs 366
scalar SolutionNetwork.node[11].appl generatedBSMs 0
scalar SolutionNetwork.node[11].appl receivedBSMs 1920
scalar SolutionNetwork.node[11].appl generatedWSAs 0
scalar SolutionNetwork.node[11].appl receivedWSAs 0
scalar SolutionNetwork.node[11].appl "finished Task" 351
scalar SolutionNetwork.node[11].appl Tasks 481
scalar SolutionNetwork.node[11].appl avgResponseTime 0.154560762184
scalar SolutionNetwork.node[11].appl COMessages 838
scalar SolutionNetwork.node[11].appl "Handovered CO" 0
scalar SolutionNetwork.node[11].nic.phy80211p busyTime 0.067826133333348
scalar SolutionNetwork.node[11].nic.mac1609_4 ReceivedUnicastPackets 366
scalar SolutionNetwork.node[11].nic.mac1609_4 ReceivedBroadcasts 1920
scalar SolutionNetwork.node[11].nic.mac1609_4 SentPackets 857
scalar SolutionNetwork.node[11].nic.mac1609_4 SentAcknowledgements 0
scalar SolutionNetwork.node[11].nic.mac1609_4 RetriesExceeded 0
scalar SolutionNetwork.node[11].nic.mac1609_4 SNIRLostPackets 22470
scalar SolutionNetwork.node[11].nic.mac1609_4 RXTXLostPackets 19
scalar SolutionNetwork.node[11].nic.mac1609_4 TotalLostPackets 22489
scalar SolutionNetwork.node[11].nic.mac1609_4 DroppedPacketsInMac 0
scalar SolutionNetwork.node[11].nic.mac1609_4 TooLittleTime 0
scalar SolutionNetwork.node[11].nic.mac1609_4 TimesIntoBackoff 881
scalar SolutionNetwork.node[11].nic.mac1609_4 SlotsBackoff 1367
scalar SolutionNetwork.node[11].nic.mac1609_4 NumInternalContention 0
scalar SolutionNetwork.node[11].nic.mac1609_4 totalBusyTime 5.112497112787
scalar SolutionNetwork.node[11].nic.mac1609_4 retriesExceeded:count 0
attr source org_car2x_veins_modules_mac_sigRetriesExceeded
scalar SolutionNetwork.node[11].nic.mac1609_4 sentAcks:count 0
attr source org_car2x_veins_modules_mac_sigSentAck
scalar SolutionNetwork.node[11].nic.mac1609_4 sentPackets:count 857
attr source org_car2x_veins_modules_mac_sigSentPacket
scalar SolutionNetwork.node[11].nic.mac1609_4 collisions:count 0
attr source org_car2x_veins_modules_mac_sigCollision
scalar SolutionNetwork.node[11].nic.mac1609_4 channelBusy:timeavg 0.068166628170508
attr source org_car2x_veins_modules_mac_sigChannelBusy
scalar SolutionNetwork.node[11].veinsmobility startTime 11
scalar SolutionNetwork.node[11].veinsmobility totalTime 74
scalar SolutionNetwork.node[11].veinsmobility stopTime 86
scalar SolutionNetwork.node[11].veinsmobility minSpeed 33.3333
scalar SolutionNetwork.node[11].veinsmobility maxSpeed 33.3333
scalar SolutionNetwork.node[11].veinsmobility totalDistance 2466.6642
scalar SolutionNetwork.node[11].veinsmobility totalCO2Emission 448.17825332139
scalar SolutionNetwork.node[12].appl generatedWSMs 0
scalar SolutionNetwork.node[12].appl receivedWSMs 390
scalar SolutionNetwork.node[12].appl generatedBSMs 0
scalar SolutionNetwork.node[12].appl receivedBSMs 1972
scalar SolutionNetwork.node[12].appl generatedWSAs 0
scalar SolutionNetwork.node[12].appl receivedWSAs 0
scalar SolutionNetwork.node[12].appl "finished Task" 374
scalar SolutionNetwork.node[12].appl Tasks 481
scalar SolutionNetwork.node[12].appl avgResponseTime 0.146208596839
scalar SolutionNetwork.node[12].appl COMessages 862
scalar SolutionNetwork.node[12].appl "Handovered CO" 1
scalar SolutionNetwork.node[12].nic.phy80211p busyTime 0.068208746666683
scalar SolutionNetwork.node[12].nic.mac1609_4 ReceivedUnicastPackets 390
scalar SolutionNetwork.node[12].nic.mac1609_4 ReceivedBroadcasts 1972
scalar SolutionNetwork.node[12].nic.mac1609_4 SentPackets 880
scalar SolutionNetwork.node[12].nic.mac1609_4 SentAcknowledgements 0
scalar SolutionNetwork.node[12].nic.mac1609_4 RetriesExceeded 0
scalar SolutionNetwork.node[12].nic.mac1609_4 SNIRLostPackets 21694
scalar SolutionNetwork.node[12].nic.mac1609_4 RXTXLostPackets 26
scalar SolutionNetwork.node[12].nic.mac1609_4 TotalLostPackets 21720
scalar SolutionNetwork.node[12].nic.mac1609_4 DroppedPacketsInMac 0
scalar SolutionNetwork.node[12].nic.mac1609_4 TooLittleTime 0
scalar SolutionNetwork.node[12].nic.mac1609_4 TimesIntoBackoff 911
scalar SolutionNetwork.node[12].nic.mac1609_4 SlotsBackoff 1370
scalar SolutionNetwork.node[12].nic.mac1609_4 NumInternalContention 0
scalar SolutionNetwork.node[12].nic.mac1609_4 totalBusyTime 5.144176723565
scalar SolutionNetwork.node[12].nic.mac1609_4 retriesExceeded:count 0
attr source org_car2x_veins_modules_mac_sigRetriesExceeded
scalar SolutionNetwork.node[12].nic.mac1609_4 sentAcks:count 0
attr source org_car2x_veins_modules_mac_sigSentAck
scalar SolutionNetwork.node[12].nic.mac1609_4 sentPackets:count 880
attr source org_car2x_veins_modules_mac_sigSentPacket
scalar SolutionNetwork.node[12].nic.mac1609_4 collisions:count 0
attr source org_car2x_veins_modules_mac_sigCollision
scalar SolutionNetwork.node[12].nic.mac1609_4 channelBusy:timeavg 0.068589022980883
attr source org_car2x_veins_modules_mac_sigChannelBusy
scalar SolutionNetwork.node[12].veinsmobility startTime 13
scalar SolutionNetwork.node[12].veinsmobility totalTime 74
scalar SolutionNetwork.node[12].veinsmobility stopTime 88
scalar SolutionNetwork.node[12].veinsmobility minSpeed 33.3333
scalar SolutionNetwork.node[12].veinsmobility maxSpeed 33.3333
scalar SolutionNetwork.node[12].veinsmobility totalDistance 2466.6642
scalar SolutionNetwork.node[12].veinsmobility totalCO2Emission 448.17825332139
scalar SolutionNetwork.node[13].appl generatedWSMs 0
scalar SolutionNetwork.node[13].appl receivedWSMs 382
scalar SolutionNetwork.node[13].appl generatedBSMs 0
scalar SolutionNetwork.node[13].appl receivedBSMs 1914
scalar SolutionNetwork.node[13].appl generatedWSAs 0
scalar SolutionNetwork.node[13].appl receivedWSAs 0
scalar SolutionNetwork.node[13].appl "finished Task" 366
scalar SolutionNetwork.node[13].appl Tasks 480
scalar SolutionNetwork.node[13].appl avgResponseTime 0.148840205684
scalar SolutionNetwork.node[13].appl COMessages 853
scalar SolutionNetwork.node[13].appl "Handovered CO" 1
scalar SolutionNetwork.node[13].nic.phy80211p busyTime 0.068176960000016
scalar SolutionNetwork.node[13].nic.mac1609_4 ReceivedUnicastPackets 382
scalar SolutionNetwork.node[13].nic.mac1609_4 ReceivedBroadcasts 1914
scalar SolutionNetwork.node[13].nic.mac1609_4 SentPackets 885
scalar SolutionNetwork.node[13].nic.mac1609_4 SentAcknowledgements 0
scalar SolutionNetwork.node[13].nic.mac1609_4 RetriesExceeded 0
scalar SolutionNetwork.node[13].nic.mac1609_4 SNIRLostPackets 21894
scalar SolutionNetwork.node[13].nic.mac1609_4 RXTXLostPackets 39
scalar SolutionNetwork.node[13].nic.mac1609_4 TotalLostPackets 21933
scalar SolutionNetwork.node[13].nic.mac1609_4 DroppedPacketsInMac 0
scalar SolutionNetwork.node[13].nic.mac1609_4 TooLittleTime 0
scalar SolutionNetwork.node[13].nic.mac1609_4 TimesIntoBackoff 918
scalar SolutionNetwork.node[13].nic.mac1609_4 SlotsBackoff 1383
scalar SolutionNetwork.node[13].nic.mac1609_4 NumInternalContention 0
scalar SolutionNetwork.node[13].nic.mac1609_4 totalBusyTime 5.14475706954
scalar SolutionNetwork.node[13].nic.mac1609_4 retriesExceeded:count 0
attr source org_car2x_veins_modules_mac_sigRetriesExceeded
scalar SolutionNetwork.node[13].nic.mac1609_4 sentAcks:count 0
attr source org_car2x_veins_modules_mac_sigSentAck
scalar SolutionNetwork.node[13].nic.mac1609_4 sentPackets:count 885
attr source org_car2x_veins_modules_mac_sigSentPacket
scalar SolutionNetwork.node[13].nic.mac1609_4 collisions:count 0
attr source org_car2x_veins_modules_mac_sigCollision
scalar SolutionNetwork.node[13].nic.mac1609_4 channelBusy:timeavg 0.068596760927216
attr source org_car2x_veins_modules_mac_sigChannelBusy
scalar SolutionNetwork.node[13].veinsmobility startTime 13
scalar SolutionNetwork.node[13].veinsmobility totalTime 74
scalar SolutionNetwork.node[13].veinsmobility stopTime 88
scalar SolutionNetwork.node[13].veinsmobility minSpeed 33.3333
scalar SolutionNetwork.node[13].veinsmobility maxSpeed 33.3333
scalar SolutionNetwork.node[13].veinsmobility totalDistance 2466.6642
scalar SolutionNetwork.node[13].veinsmobility totalCO2Emission 448.17825332139
scalar SolutionNetwork.node[14].appl generatedWSMs 0
scalar SolutionNetwork.node[14].appl receivedWSMs 413
scalar SolutionNetwork.node[14].appl generatedBSMs 0
scalar SolutionNetwork.node[14].appl receivedBSMs 1956
scalar SolutionNetwork.node[14].appl generatedWSAs 0
scalar SolutionNetwork.node[14].appl receivedWSAs 0
scalar SolutionNetwork.node[14].appl "finished Task" 397
scalar SolutionNetwork.node[14].appl Tasks 481
scalar SolutionNetwork.node[14].appl avgResponseTime 0.146454175801
scalar SolutionNetwork.node[14].appl COMessages 885
scalar SolutionNetwork.node[14].appl "Handovered CO" 1
scalar SolutionNetwork.node[14].nic.phy80211p busyTime 0.068296640000016
scalar SolutionNetwork.node[14].nic.mac1609_4 ReceivedUnicastPackets 413
scalar SolutionNetwork.node[14].nic.mac1609_4 ReceivedBroadcasts 1956
scalar SolutionNetwork.node[14].nic.mac1609_4 SentPackets 908
scalar SolutionNetwork.node[14].nic.mac1609_4 SentAcknowledgements 0
scalar SolutionNetwork.node[14].nic.mac1609_4 RetriesExceeded 0
scalar SolutionNetwork.node[14].nic.mac1609_4 SNIRLostPackets 21671
scalar SolutionNetwork.node[14].nic.mac1609_4 RXTXLostPackets 38
scalar SolutionNetwork.node[14].nic.mac1609_4 TotalLostPackets 21709
scalar SolutionNetwork.node[14].nic.mac1609_4 DroppedPacketsInMac 0
scalar SolutionNetwork.node[14].nic.mac1609_4 TooLittleTime 0
scalar SolutionNetwork.node[14].nic.mac1609_4 TimesIntoBackoff 936
scalar SolutionNetwork.node[14].nic.mac1609_4 SlotsBackoff 1369
scalar SolutionNetwork.node[14].nic.mac1609_4 NumInternalContention 0
scalar SolutionNetwork.node[14].nic.mac1609_4 totalBusyTime 5.156031211092
scalar SolutionNetwork.node[14].nic.mac1609_4 retriesExceeded:count 0
attr source org_car2x_veins_modules_mac_sigRetriesExceeded
scalar SolutionNetwork.node[14].nic.mac1609_4 sentAcks:count 0
attr source org_car2x_veins_modules_mac_sigSentAck
scalar SolutionNetwork.node[14].nic.mac1609_4 sentPackets:count 908
attr source org_car2x_veins_modules_mac_sigSentPacket
scalar SolutionNetwork.node[14].nic.mac1609_4 collisions:count 0
attr source org_car2x_veins_modules_mac_sigCollision
scalar SolutionNetwork.node[14].nic.mac1609_4 channelBusy:timeavg 0.068747082814576
attr source org_car2x_veins_modules_mac_sigChannelBusy
scalar SolutionNetwork.node[14].veinsmobility startTime 15
scalar SolutionNetwork.node[14].veinsmobility totalTime 74
scalar SolutionNetwork.node[14].veinsmobility stopTime 90
scalar SolutionNetwork.node[14].veinsmobility minSpeed 33.33
scalar SolutionNetwork.node[14].veinsmobility maxSpeed 33.33
scalar SolutionNetwork.node[14].veinsmobility totalDistance 2466.42
scalar SolutionNetwork.node[14].veinsmobility totalCO2Emission 448.0924595567
scalar SolutionNetwork.node[15].appl generatedWSMs 0
scalar SolutionNetwork.node[15].appl receivedWSMs 403
scalar SolutionNetwork.node[15].appl generatedBSMs 0
scalar SolutionNetwork.node[15].appl receivedBSMs 1928
scalar SolutionNetwork.node[15].appl generatedWSAs 0
scalar SolutionNetwork.node[15].appl receivedWSAs 0
scalar SolutionNetwork.node[15].appl "finished Task" 387
scalar SolutionNetwork.node[15].appl Tasks 481
scalar SolutionNetwork.node[15].appl avgResponseTime 0.149512868698
scalar SolutionNetwork.node[15].appl COMessages 875
scalar SolutionNetwork.node[15].appl "Handovered CO" 1
scalar SolutionNetwork.node[15].nic.phy80211p busyTime 0.068322986666683
scalar SolutionNetwork.node[15].nic.mac1609_4 ReceivedUnicastPackets 403
scalar SolutionNetwork.node[15].nic.mac1609_4 ReceivedBroadcasts 1928
scalar SolutionNetwork.node[15].nic.mac1609_4 SentPackets 898
scalar SolutionNetwork.node[15].nic.mac1609_4 SentAcknowledgements 0
scalar SolutionNetwork.node[15].nic.mac1609_4 RetriesExceeded 0
scalar SolutionNetwork.node[15].nic.mac1609_4 SNIRLostPackets 21945
scalar SolutionNetwork.node[15].nic.mac1609_4 RXTXLostPackets 33
scalar SolutionNetwork.node[15].nic.mac1609_4 TotalLostPackets 21978
scalar SolutionNetwork.node[15].nic.mac1609_4 DroppedPacketsInMac 0
scalar SolutionNetwork.node[15].nic.mac1609_4 TooLittleTime 0
scalar SolutionNetwork.node[15].nic.mac1609_4 TimesIntoBackoff 928
scalar SolutionNetwork.node[15].nic.mac1609_4 SlotsBackoff 1379
scalar SolutionNetwork.node[15].nic.mac1609_4 NumInternalContention 0
scalar SolutionNetwork.node[15].nic.mac1609_4 totalBusyTime 5.156532422738
scalar SolutionNetwork.node[15].nic.mac1609_4 retriesExceeded:count 0
attr source org_car2x_veins_modules_mac_sigRetriesExceeded
scalar SolutionNetwork.node[15].nic.mac1609_4 sentAcks:count 0
attr source org_car2x_veins_modules_mac_sigSentAck
scalar SolutionNetwork.node[15].nic.mac1609_4 sentPackets:count 898
attr source org_car2x_veins_modules_mac_sigSentPacket
scalar SolutionNetwork.node[15].nic.mac1609_4 collisions:count 0
attr source org_car2x_veins_modules_mac_sigCollision
scalar SolutionNetwork.node[15].nic.mac1609_4 channelBusy:timeavg 0.068753765636523
attr source org_car2x_veins_modules_mac_sigChannelBusy
scalar SolutionNetwork.node[15].veinsmobility startTime 15
scalar SolutionNetwork.node[15].veinsmobility totalTime 74
scalar SolutionNetwork.node[15].veinsmobility stopTime 90
scalar SolutionNetwork.node[15].veinsmobility minSpeed 33.3333
scalar SolutionNetwork.node[15].veinsmobility maxSpeed 33.3333
scalar SolutionNetwork.node[15].veinsmobility totalDistance 2466.6642
scalar SolutionNetwork.node[15].veinsmobility totalCO2Emission 448.17825332139
scalar SolutionNetwork.node[16].appl generatedWSMs 0
scalar SolutionNetwork.node[16].appl receivedWSMs 375
scalar SolutionNetwork.node[16].appl generatedBSMs 0
scalar SolutionNetwork.node[16].appl receivedBSMs 1915
scalar SolutionNetwork.node[16].appl generatedWSAs 0
scalar SolutionNetwork.node[16].appl receivedWSAs 0
scalar SolutionNetwork.node[16].appl "finished Task" 362
scalar SolutionNetwork.node[16].appl Tasks 481
scalar SolutionNetwork.node[16].appl avgResponseTime 0.149558293707
scalar SolutionNetwork.node[16].appl COMessages 847
scalar SolutionNetwork.node[16].appl "Handovered CO" 0
scalar SolutionNetwork.node[16].nic.phy80211p busyTime 0.068274026666683
scalar SolutionNetwork.node[16].nic.mac1609_4 ReceivedUnicastPackets 375
scalar SolutionNetwork.node[16].nic.mac1609_4 ReceivedBroadcasts 1915
scalar SolutionNetwork.node[16].nic.mac1609_4 SentPackets 865
scalar SolutionNetwork.node[16].nic.mac1609_4 SentAcknowledgements 0
scalar SolutionNetwork.node[16].nic.mac1609_4 RetriesExceeded 0
scalar SolutionNetwork.node[16].nic.mac1609_4 SNIRLostPackets 21858
scalar SolutionNetwork.node[16].nic.mac1609_4 RXTXLostPackets 21
scalar SolutionNetwork.node[16].nic.mac1609_4 TotalLostPackets 21879
scalar SolutionNetwork.node[16].nic.mac1609_4 DroppedPacketsInMac 0
scalar SolutionNetwork.node[16].nic.mac1609_4 TooLittleTime 0
scalar SolutionNetwork.node[16].nic.mac1609_4 TimesIntoBackoff 897
scalar SolutionNetwork.node[16].nic.mac1609_4 SlotsBackoff 1400
scalar SolutionNetwork.node[16].nic.mac1609_4 NumInternalContention 0
scalar SolutionNetwork.node[16].nic.mac1609_4 totalBusyTime 5.147074030893
scalar SolutionNetwork.node[16].nic.mac1609_4 retriesExceeded:count 0
attr source org_car2x_veins_modules_mac_sigRetriesExceeded
scalar SolutionNetwork.node[16].nic.mac1609_4 sentAcks:count 0
attr source org_car2x_veins_modules_mac_sigSentAck
scalar SolutionNetwork.node[16].nic.mac1609_4 sentPackets:count 865
attr source org_car2x_veins_modules_mac_sigSentPacket
scalar SolutionNetwork.node[16].nic.mac1609_4 collisions:count 0
attr source org_car2x_veins_modules_mac_sigCollision
scalar SolutionNetwork.node[16].nic.mac1609_4 channelBusy:timeavg 0.068627653745256
attr source org_car2x_veins_modules_mac_sigChannelBusy
scalar SolutionNetwork.node[16].veinsmobility startTime 17
scalar SolutionNetwork.node[16].veinsmobility totalTime 74
scalar SolutionNetwork.node[16].veinsmobility stopTime 92
scalar SolutionNetwork.node[16].veinsmobility minSpeed 33.3333
scalar SolutionNetwork.node[16].veinsmobility maxSpeed 33.3333
scalar SolutionNetwork.node[16].veinsmobility totalDistance 2466.6642
scalar SolutionNetwork.node[16].veinsmobility totalCO2Emission 448.17825332139
scalar SolutionNetwork.node[17].appl generatedWSMs 0
scalar SolutionNetwork.node[17].appl receivedWSMs 385
scalar SolutionNetwork.node[17].appl generatedBSMs 0
scalar SolutionNetwork.node[17].appl receivedBSMs 1969
scalar SolutionNetwork.node[17].appl generatedWSAs 0
scalar SolutionNetwork.node[17].appl receivedWSAs 0
scalar SolutionNetwork.node[17].appl "finished Task" 371
scalar SolutionNetwork.node[17].appl Tasks 481
scalar SolutionNetwork.node[17].appl avgResponseTime 0.149599640262
scalar SolutionNetwork.node[17].appl COMessages 857
scalar SolutionNetwork.node[17].appl "Handovered CO" 0
scalar SolutionNetwork.node[17].nic.phy80211p busyTime 0.06824757333335
scalar SolutionNetwork.node[17].nic.mac1609_4 ReceivedUnicastPackets 385
scalar SolutionNetwork.node[17].nic.mac1609_4 ReceivedBroadcasts 1969
scalar SolutionNetwork.node[17].nic.mac1609_4 SentPackets 877
scalar SolutionNetwork.node[17].nic.mac1609_4 SentAcknowledgements 0
scalar SolutionNetwork.node[17].nic.mac1609_4 RetriesExceeded 0
scalar SolutionNetwork.node[17].nic.mac1609_4 SNIRLostPackets 21618
scalar SolutionNetwork.node[17].nic.mac1609_4 RXTXLostPackets 25
scalar SolutionNetwork.node[17].nic.mac1609_4 TotalLostPackets 21643
scalar SolutionNetwork.node[17].nic.mac1609_4 DroppedPacketsInMac 0
scalar SolutionNetwork.node[17].nic.mac1609_4 TooLittleTime 0
scalar SolutionNetwork.node[17].nic.mac1609_4 TimesIntoBackoff 901
scalar SolutionNetwork.node[17].nic.mac1609_4 SlotsBackoff 1339
scalar SolutionNetwork.node[17].nic.mac1609_4 NumInternalContention 0
scalar SolutionNetwork.node[17].nic.mac1609_4 totalBusyTime 5.146830061389
scalar SolutionNetwork.node[17].nic.mac1609_4 retriesExceeded:count 0
attr source org_car2x_veins_modules_mac_sigRetriesExceeded
scalar SolutionNetwork.node[17].nic.mac1609_4 sentAcks:count 0
attr source org_car2x_veins_modules_mac_sigSentAck
scalar SolutionNetwork.node[17].nic.mac1609_4 sentPackets:count 877
attr source org_car2x_veins_modules_mac_sigSentPacket
scalar SolutionNetwork.node[17].nic.mac1609_4 collisions:count 0
attr source org_car2x_veins_modules_mac_sigCollision
scalar SolutionNetwork.node[17].nic.mac1609_4 channelBusy:timeavg 0.068624400818536
attr source org_car2x_veins_modules_mac_sigChannelBusy
scalar SolutionNetwork.node[17].veinsmobility startTime 17
scalar SolutionNetwork.node[17].veinsmobility totalTime 74
scalar SolutionNetwork.node[17].veinsmobility stopTime 92
scalar SolutionNetwork.node[17].veinsmobility minSpeed 33.3333
scalar SolutionNetwork.node[17].veinsmobility maxSpeed 33.3333
scalar SolutionNetwork.node[17].veinsmobility totalDistance 2466.6642
scalar SolutionNetwork.node[17].veinsmobility totalCO2Emission 448.17825332139
scalar SolutionNetwork.node[18].appl generatedWSMs 0
scalar SolutionNetwork.node[18].appl receivedWSMs 377
scalar SolutionNetwork.node[18].appl generatedBSMs 0
scalar SolutionNetwork.node[18].appl receivedBSMs 1915
scalar SolutionNetwork.node[18].appl generatedWSAs 0
scalar SolutionNetwork.node[18].appl receivedWSAs 0
scalar SolutionNetwork.node[18].appl "finished Task" 364
scalar SolutionNetwork.node[18].appl Tasks 481
scalar SolutionNetwork.node[18].appl avgResponseTime 0.149998115077
scalar SolutionNetwork.node[18].appl COMessages 849
scalar SolutionNetwork.node[18].appl "Handovered CO" 1
scalar SolutionNetwork.node[18].nic.phy80211p busyTime 0.067569600000015
scalar SolutionNetwork.node[18].nic.mac1609_4 ReceivedUnicastPackets 377
scalar SolutionNetwork.node[18].nic.mac1609_4 ReceivedBroadcasts 1915
scalar SolutionNetwork.node[18].nic.mac1609_4 SentPackets 967
scalar SolutionNetwork.node[18].nic.mac1609_4 SentAcknowledgements 0
scalar SolutionNetwork.node[18].nic.mac1609_4 RetriesExceeded 0
scalar SolutionNetwork.node[18].nic.mac1609_4 SNIRLostPackets 22352
scalar SolutionNetwork.node[18].nic.mac1609_4 RXTXLostPackets 120
scalar SolutionNetwork.node[18].nic.mac1609_4 TotalLostPackets 22472
scalar SolutionNetwork.node[18].nic.mac1609_4 DroppedPacketsInMac 0
scalar SolutionNetwork.node[18].nic.mac1609_4 TooLittleTime 0
scalar SolutionNetwork.node[18].nic.mac1609_4 TimesIntoBackoff 1008
scalar SolutionNetwork.node[18].nic.mac1609_4 SlotsBackoff 1540
scalar SolutionNetwork.node[18].nic.mac1609_4 NumInternalContention 0
scalar SolutionNetwork.node[18].nic.mac1609_4 totalBusyTime 5.122687150091
scalar SolutionNetwork.node[18].nic.mac1609_4 retriesExceeded:count 0
attr source org_car2x_veins_modules_mac_sigRetriesExceeded
scalar SolutionNetwork.node[18].nic.mac1609_4 sentAcks:count 0
attr source org_car2x_veins_modules_mac_sigSentAck
scalar SolutionNetwork.node[18].nic.mac1609_4 sentPackets:count 967
attr source org_car2x_veins_modules_mac_sigSentPacket
scalar SolutionNetwork.node[18].nic.mac1609_4 collisions:count 0
attr source org_car2x_veins_modules_mac_sigCollision
scalar SolutionNetwork.node[18].nic.mac1609_4 channelBusy:timeavg 0.068302495334562
attr source org_car2x_veins_modules_mac_sigChannelBusy
scalar SolutionNetwork.node[18].veinsmobility startTime 19
scalar SolutionNetwork.node[18].veinsmobility totalTime 74
scalar SolutionNetwork.node[18].veinsmobility stopTime 94
scalar SolutionNetwork.node[18].veinsmobility minSpeed 33.33
scalar SolutionNetwork.node[18].veinsmobility maxSpeed 33.33
scalar SolutionNetwork.node[18].veinsmobility totalDistance 2466.42
scalar SolutionNetwork.node[18].veinsmobility totalCO2Emission 448.0924595567
scalar SolutionNetwork.node[19].appl generatedWSMs 0
scalar SolutionNetwork.node[19].appl receivedWSMs 382
scalar SolutionNetwork.node[19].appl generatedBSMs 0
scalar SolutionNetwork.node[19].appl receivedBSMs 1967
scalar SolutionNetwork.node[19].appl generatedWSAs 0
scalar SolutionNetwork.node[19].appl receivedWSAs 0
scalar SolutionNetwork.node[19].appl "finished Task" 371
scalar SolutionNetwork.node[19].appl Tasks 480
scalar SolutionNetwork.node[19].appl avgResponseTime 0.149347056725
scalar SolutionNetwork.node[19].appl COMessages 853
scalar SolutionNetwork.node[19].appl "Handovered CO" 1
scalar SolutionNetwork.node[19].nic.phy80211p busyTime 0.067538666666681
scalar SolutionNetwork.node[19].nic.mac1609_4 ReceivedUnicastPackets 382
scalar SolutionNetwork.node[19].nic.mac1609_4 ReceivedBroadcasts 1967
scalar SolutionNetwork.node[19].nic.mac1609_4 SentPackets 979
scalar SolutionNetwork.node[19].nic.mac1609_4 SentAcknowledgements 0
scalar SolutionNetwork.node[19].nic.mac1609_4 RetriesExceeded 0
scalar SolutionNetwork.node[19].nic.mac1609_4 SNIRLostPackets 22157
scalar SolutionNetwork.node[19].nic.mac1609_4 RXTXLostPackets 126
scalar SolutionNetwork.node[19].nic.mac1609_4 TotalLostPackets 22283
scalar SolutionNetwork.node[19].nic.mac1609_4 DroppedPacketsInMac 0
scalar SolutionNetwork.node[19].nic.mac1609_4 TooLittleTime 0
scalar SolutionNetwork.node[19].nic.mac1609_4 TimesIntoBackoff 1015
scalar SolutionNetwork.node[19].nic.mac1609_4 SlotsBackoff 1542
scalar SolutionNetwork.node[19].nic.mac1609_4 NumInternalContention 0
scalar SolutionNetwork.node[19].nic.mac1609_4 totalBusyTime 5.122315102922
scalar SolutionNetwork.node[19].nic.mac1609_4 retriesExceeded:count 0
attr source org_car2x_veins_modules_mac_sigRetriesExceeded
scalar SolutionNetwork.node[19].nic.mac1609_4 sentAcks:count 0
attr source org_car2x_veins_modules_mac_sigSentAck
scalar SolutionNetwork.node[19].nic.mac1609_4 sentPackets:count 979
attr source org_car2x_veins_modules_mac_sigSentPacket
scalar SolutionNetwork.node[19].nic.mac1609_4 collisions:count 0
attr source org_car2x_veins_modules_mac_sigCollision
scalar SolutionNetwork.node[19].nic.mac1609_4 channelBusy:timeavg 0.068297534705642
attr source org_car2x_veins_modules_mac_sigChannelBusy
scalar SolutionNetwork.node[19].veinsmobility startTime 19
scalar SolutionNetwork.node[19].veinsmobility totalTime 74
scalar SolutionNetwork.node[19].veinsmobility stopTime 94
scalar SolutionNetwork.node[19].veinsmobility minSpeed 33.3333
scalar SolutionNetwork.node[19].veinsmobility maxSpeed 33.3333
scalar SolutionNetwork.node[19].veinsmobility totalDistance 2466.6642
scalar SolutionNetwork.node[19].veinsmobility totalCO2Emission 448.17825332139
scalar SolutionNetwork.node[20].appl generatedWSMs 0
scalar SolutionNetwork.node[20].appl receivedWSMs 371
scalar SolutionNetwork.node[20].appl generatedBSMs 0
scalar SolutionNetwork.node[20].appl receivedBSMs 1931
scalar SolutionNetwork.node[20].appl generatedWSAs 0
scalar SolutionNetwork.node[20].appl receivedWSAs 0
scalar SolutionNetwork.node[20].appl "finished Task" 355
scalar SolutionNetwork.node[20].appl Tasks 481
scalar SolutionNetwork.node[20].appl avgResponseTime 0.149003721728
scalar SolutionNetwork.node[20].appl COMessages 843
scalar SolutionNetwork.node[20].appl "Handovered CO" 1
scalar SolutionNetwork.node[20].nic.phy80211p busyTime 0.067237866666681
scalar SolutionNetwork.node[20].nic.mac1609_4 ReceivedUnicastPackets 371
scalar SolutionNetwork.node[20].nic.mac1609_4 ReceivedBroadcasts 1931
scalar SolutionNetwork.node[20].nic.mac1609_4 SentPackets 877
scalar SolutionNetwork.node[20].nic.mac1609_4 SentAcknowledgements 0
scalar SolutionNetwork.node[20].nic.mac1609_4 RetriesExceeded 0
scalar SolutionNetwork.node[20].nic.mac1609_4 SNIRLostPackets 23089
scalar SolutionNetwork.node[20].nic.mac1609_4 RXTXLostPackets 31
scalar SolutionNetwork.node[20].nic.mac1609_4 TotalLostPackets 23120
scalar SolutionNetwork.node[20].nic.mac1609_4 DroppedPacketsInMac 0
scalar SolutionNetwork.node[20].nic.mac1609_4 TooLittleTime 0
scalar SolutionNetwork.node[20].nic.mac1609_4 TimesIntoBackoff 916
scalar SolutionNetwork.node[20].nic.mac1609_4 SlotsBackoff 1357
scalar SolutionNetwork.node[20].nic.mac1609_4 NumInternalContention 0
scalar SolutionNetwork.node[20].nic.mac1609_4 totalBusyTime 5.074317129184
scalar SolutionNetwork.node[20].nic.mac1609_4 retriesExceeded:count 0
attr source org_car2x_veins_modules_mac_sigRetriesExceeded
scalar SolutionNetwork.node[20].nic.mac1609_4 sentAcks:count 0
attr source org_car2x_veins_modules_mac_sigSentAck
scalar SolutionNetwork.node[20].nic.mac1609_4 sentPackets:count 877
attr source org_car2x_veins_modules_mac_sigSentPacket
scalar SolutionNetwork.node[20].nic.mac1609_4 collisions:count 0
attr source org_car2x_veins_modules_mac_sigCollision
scalar SolutionNetwork.node[20].nic.mac1609_4 channelBusy:timeavg 0.067657561722467
attr source org_car2x_veins_modules_mac_sigChannelBusy
scalar SolutionNetwork.node[20].veinsmobility startTime 21
scalar SolutionNetwork.node[20].veinsmobility totalTime 74
scalar SolutionNetwork.node[20].veinsmobility stopTime 96
scalar SolutionNetwork.node[20].veinsmobility minSpeed 33.3333
scalar SolutionNetwork.node[20].veinsmobility maxSpeed 33.3333
scalar SolutionNetwork.node[20].veinsmobility totalDistance 2466.6642
scalar SolutionNetwork.node[20].veinsmobility totalCO2Emission 448.17825332139
scalar SolutionNetwork.node[21].appl generatedWSMs 0
scalar SolutionNetwork.node[21].appl receivedWSMs 387
scalar SolutionNetwork.node[21].appl generatedBSMs 0
scalar SolutionNetwork.node[21].appl receivedBSMs 1982
scalar SolutionNetwork.node[21].appl generatedWSAs 0
scalar SolutionNetwork.node[21].appl receivedWSAs 0
scalar SolutionNetwork.node[21].appl "finished Task" 371
scalar SolutionNetwork.node[21].appl Tasks 481
scalar SolutionNetwork.node[21].appl avgResponseTime 0.1518653271
scalar SolutionNetwork.node[21].appl COMessages 859
scalar SolutionNetwork.node[21].appl "Handovered CO" 1
scalar SolutionNetwork.node[21].nic.phy80211p busyTime 0.067225066666681
scalar SolutionNetwork.node[21].nic.mac1609_4 ReceivedUnicastPackets 387
scalar SolutionNetwork.node[21].nic.mac1609_4 ReceivedBroadcasts 1982
scalar SolutionNetwork.node[21].nic.mac1609_4 SentPackets 883
scalar SolutionNetwork.node[21].nic.mac1609_4 SentAcknowledgements 0
scalar SolutionNetwork.node[21].nic.mac1609_4 RetriesExceeded 0
scalar SolutionNetwork.node[21].nic.mac1609_4 SNIRLostPackets 22820
scalar SolutionNetwork.node[21].nic.mac1609_4 RXTXLostPackets 33
scalar SolutionNetwork.node[21].nic.mac1609_4 TotalLostPackets 22853
scalar SolutionNetwork.node[21].nic.mac1609_4 DroppedPacketsInMac 0
scalar SolutionNetwork.node[21].nic.mac1609_4 TooLittleTime 0
scalar SolutionNetwork.node[21].nic.mac1609_4 TimesIntoBackoff 914
scalar SolutionNetwork.node[21].nic.mac1609_4 SlotsBackoff 1369
scalar SolutionNetwork.node[21].nic.mac1609_4 NumInternalContention 0
scalar SolutionNetwork.node[21].nic.mac1609_4 totalBusyTime 5.073875325999
scalar SolutionNetwork.node[21].nic.mac1609_4 retriesExceeded:count 0
attr source org_car2x_veins_modules_mac_sigRetriesExceeded
scalar SolutionNetwork.node[21].nic.mac1609_4 sentAcks:count 0
attr source org_car2x_veins_modules_mac_sigSentAck
scalar SolutionNetwork.node[21].nic.mac1609_4 sentPackets:count 883
attr source org_car2x_veins_modules_mac_sigSentPacket
scalar SolutionNetwork.node[21].nic.mac1609_4 collisions:count 0
attr source org_car2x_veins_modules_mac_sigCollision
scalar SolutionNetwork.node[21].nic.mac1609_4 channelBusy:timeavg 0.067651671013333
attr source org_car2x_veins_modules_mac_sigChannelBusy
scalar SolutionNetwork.node[21].veinsmobility startTime 21
scalar SolutionNetwork.node[21].veinsmobility totalTime 74
scalar SolutionNetwork.node[21].veinsmobility stopTime 96
scalar SolutionNetwork.node[21].veinsmobility minSpeed 33.3333
scalar SolutionNetwork.node[21].veinsmobility maxSpeed 33.3333
scalar SolutionNetwork.node[21].veinsmobility totalDistance 2466.6642
scalar SolutionNetwork.node[21].veinsmobility totalCO2Emission 448.17825332139
scalar SolutionNetwork.node[22].appl generatedWSMs 0
scalar SolutionNetwork.node[22].appl receivedWSMs 389
scalar SolutionNetwork.node[22].appl generatedBSMs 0
scalar SolutionNetwork.node[22].appl receivedBSMs 1931
scalar SolutionNetwork.node[22].appl generatedWSAs 0
scalar SolutionNetwork.node[22].appl receivedWSAs 0
scalar SolutionNetwork.node[22].appl "finished Task" 375
scalar SolutionNetwork.node[22].appl Tasks 481
scalar SolutionNetwork.node[22].appl avgResponseTime 0.150415389066
scalar SolutionNetwork.node[22].appl COMessages 861
scalar SolutionNetwork.node[22].appl "Handovered CO" 0
scalar SolutionNetwork.node[22].nic.phy80211p busyTime 0.066395626666678
scalar SolutionNetwork.node[22].nic.mac1609_4 ReceivedUnicastPackets 389
scalar SolutionNetwork.node[22].nic.mac1609_4 ReceivedBroadcasts 1931
scalar SolutionNetwork.node[22].nic.mac1609_4 SentPackets 873
scalar SolutionNetwork.node[22].nic.mac1609_4 SentAcknowledgements 0
scalar SolutionNetwork.node[22].nic.mac1609_4 RetriesExceeded 0
scalar SolutionNetwork.node[22].nic.mac1609_4 SNIRLostPackets 23742
scalar SolutionNetwork.node[22].nic.mac1609_4 RXTXLostPackets 17
scalar SolutionNetwork.node[22].nic.mac1609_4 TotalLostPackets 23759
scalar SolutionNetwork.node[22].nic.mac1609_4 DroppedPacketsInMac 0
scalar SolutionNetwork.node[22].nic.mac1609_4 TooLittleTime 0
scalar SolutionNetwork.node[22].nic.mac1609_4 TimesIntoBackoff 898
scalar SolutionNetwork.node[22].nic.mac1609_4 SlotsBackoff 1358
scalar SolutionNetwork.node[22].nic.mac1609_4 NumInternalContention 0
scalar SolutionNetwork.node[22].nic.mac1609_4 totalBusyTime 5.009113149087
scalar SolutionNetwork.node[22].nic.mac1609_4 retriesExceeded:count 0
attr source org_car2x_veins_modules_mac_sigRetriesExceeded
scalar SolutionNetwork.node[22].nic.mac1609_4 sentAcks:count 0
attr source org_car2x_veins_modules_mac_sigSentAck
scalar SolutionNetwork.node[22].nic.mac1609_4 sentPackets:count 873
attr source org_car2x_veins_modules_mac_sigSentPacket
scalar SolutionNetwork.node[22].nic.mac1609_4 collisions:count 0
attr source org_car2x_veins_modules_mac_sigCollision
scalar SolutionNetwork.node[22].nic.mac1609_4 channelBusy:timeavg 0.066788175321171
attr source org_car2x_veins_modules_mac_sigChannelBusy
scalar SolutionNetwork.node[22].veinsmobility startTime 23
scalar SolutionNetwork.node[22].veinsmobility totalTime 74
scalar SolutionNetwork.node[22].veinsmobility stopTime 98
scalar SolutionNetwork.node[22].veinsmobility minSpeed 33.33
scalar SolutionNetwork.node[22].veinsmobility maxSpeed 33.33
scalar SolutionNetwork.node[22].veinsmobility totalDistance 2466.42
scalar SolutionNetwork.node[22].veinsmobility totalCO2Emission 448.0924595567
scalar SolutionNetwork.node[23].appl generatedWSMs 0
scalar SolutionNetwork.node[23].appl receivedWSMs 370
scalar SolutionNetwork.node[23].appl generatedBSMs 0
scalar SolutionNetwork.node[23].appl receivedBSMs 1973
scalar SolutionNetwork.node[23].appl generatedWSAs 0
scalar SolutionNetwork.node[23].appl receivedWSAs 0
scalar SolutionNetwork.node[23].appl "finished Task" 358
scalar SolutionNetwork.node[23].appl Tasks 481
scalar SolutionNetwork.node[23].appl avgResponseTime 0.149394872821
scalar SolutionNetwork.node[23].appl COMessages 842
scalar SolutionNetwork.node[23].appl "Handovered CO" 0
scalar SolutionNetwork.node[23].nic.phy80211p busyTime 0.066422720000012
scalar SolutionNetwork.node[23].nic.mac1609_4 ReceivedUnicastPackets 370
scalar SolutionNetwork.node[23].nic.mac1609_4 ReceivedBroadcasts 1973
scalar SolutionNetwork.node[23].nic.mac1609_4 SentPackets 855
scalar SolutionNetwork.node[23].nic.mac1609_4 SentAcknowledgements 0
scalar SolutionNetwork.node[23].nic.mac1609_4 RetriesExceeded 0
scalar SolutionNetwork.node[23].nic.mac1609_4 SNIRLostPackets 23456
scalar SolutionNetwork.node[23].nic.mac1609_4 RXTXLostPackets 21
scalar SolutionNetwork.node[23].nic.mac1609_4 TotalLostPackets 23477
scalar SolutionNetwork.node[23].nic.mac1609_4 DroppedPacketsInMac 0
scalar SolutionNetwork.node[23].nic.mac1609_4 TooLittleTime 0
scalar SolutionNetwork.node[23].nic.mac1609_4 TimesIntoBackoff 892
scalar SolutionNetwork.node[23].nic.mac1609_4 SlotsBackoff 1377
scalar SolutionNetwork.node[23].nic.mac1609_4 NumInternalContention 0
scalar SolutionNetwork.node[23].nic.mac1609_4 totalBusyTime 5.008519266192
scalar SolutionNetwork.node[23].nic.mac1609_4 retriesExceeded:count 0
attr source org_car2x_veins_modules_mac_sigRetriesExceeded
scalar SolutionNetwork.node[23].nic.mac1609_4 sentAcks:count 0
attr source org_car2x_veins_modules_mac_sigSentAck
scalar SolutionNetwork.node[23].nic.mac1609_4 sentPackets:count 855
attr source org_car2x_veins_modules_mac_sigSentPacket
scalar SolutionNetwork.node[23].nic.mac1609_4 collisions:count 0
attr source org_car2x_veins_modules_mac_sigCollision
scalar SolutionNetwork.node[23].nic.mac1609_4 channelBusy:timeavg 0.066780256882571
attr source org_car2x_veins_modules_mac_sigChannelBusy
scalar SolutionNetwork.node[23].veinsmobility startTime 23
scalar SolutionNetwork.node[23].veinsmobility totalTime 74
scalar SolutionNetwork.node[23].veinsmobility stopTime 98
scalar SolutionNetwork.node[23].veinsmobility minSpeed 33.33
scalar SolutionNetwork.node[23].veinsmobility maxSpeed 33.33
scalar SolutionNetwork.node[23].veinsmobility totalDistance 2466.42
scalar SolutionNetwork.node[23].veinsmobility totalCO2Emission 448.0924595567
scalar SolutionNetwork.node[24].appl generatedWSMs 0
scalar SolutionNetwork.node[24].appl receivedWSMs 373
scalar SolutionNetwork.node[24].appl generatedBSMs 0
scalar SolutionNetwork.node[24].appl receivedBSMs 1912
scalar SolutionNetwork.node[24].appl generatedWSAs 0
scalar SolutionNetwork.node[24].appl receivedWSAs 0
scalar SolutionNetwork.node[24].appl "finished Task" 358
scalar SolutionNetwork.node[24].appl Tasks 481
scalar SolutionNetwork.node[24].appl avgResponseTime 0.146836014996
scalar SolutionNetwork.node[24].appl COMessages 845
scalar SolutionNetwork.node[24].appl "Handovered CO" 0
scalar SolutionNetwork.node[24].nic.phy80211p busyTime 0.065360746666676
scalar SolutionNetwork.node[24].nic.mac1609_4 ReceivedUnicastPackets 373
scalar SolutionNetwork.node[24].nic.mac1609_4 ReceivedBroadcasts 1912
scalar SolutionNetwork.node[24].nic.mac1609_4 SentPackets 862
scalar SolutionNetwork.node[24].nic.mac1609_4 SentAcknowledgements 0
scalar SolutionNetwork.node[24].nic.mac1609_4 RetriesExceeded 0
scalar SolutionNetwork.node[24].nic.mac1609_4 SNIRLostPackets 24306
scalar SolutionNetwork.node[24].nic.mac1609_4 RXTXLostPackets 26
scalar SolutionNetwork.node[24].nic.mac1609_4 TotalLostPackets 24332
scalar SolutionNetwork.node[24].nic.mac1609_4 DroppedPacketsInMac 0
scalar SolutionNetwork.node[24].nic.mac1609_4 TooLittleTime 0
scalar SolutionNetwork.node[24].nic.mac1609_4 TimesIntoBackoff 891
scalar SolutionNetwork.node[24].nic.mac1609_4 SlotsBackoff 1374
scalar SolutionNetwork.node[24].nic.mac1609_4 NumInternalContention 0
scalar SolutionNetwork.node[24].nic.mac1609_4 totalBusyTime 4.932118007823
scalar SolutionNetwork.node[24].nic.mac1609_4 retriesExceeded:count 0
attr source org_car2x_veins_modules_mac_sigRetriesExceeded
scalar SolutionNetwork.node[24].nic.mac1609_4 sentAcks:count 0
attr source org_car2x_veins_modules_mac_sigSentAck
scalar SolutionNetwork.node[24].nic.mac1609_4 sentPackets:count 862
attr source org_car2x_veins_modules_mac_sigSentPacket
scalar SolutionNetwork.node[24].nic.mac1609_4 collisions:count 0
attr source org_car2x_veins_modules_mac_sigCollision
scalar SolutionNetwork.node[24].nic.mac1609_4 channelBusy:timeavg 0.065761573437648
attr source org_car2x_veins_modules_mac_sigChannelBusy
scalar SolutionNetwork.node[24].veinsmobility startTime 25
scalar SolutionNetwork.node[24].veinsmobility totalTime 74
scalar SolutionNetwork.node[24].veinsmobility stopTime 100
scalar SolutionNetwork.node[24].veinsmobility minSpeed 33.3333
scalar SolutionNetwork.node[24].veinsmobility maxSpeed 33.3333
scalar SolutionNetwork.node[24].veinsmobility totalDistance 2466.6642
scalar SolutionNetwork.node[24].veinsmobility totalCO2Emission 448.17825332139
scalar SolutionNetwork.node[25].appl generatedWSMs 0
scalar SolutionNetwork.node[25].appl receivedWSMs 375
scalar SolutionNetwork.node[25].appl generatedBSMs 0
scalar SolutionNetwork.node[25].appl receivedBSMs 1971
scalar SolutionNetwork.node[25].appl generatedWSAs 0
scalar SolutionNetwork.node[25].appl receivedWSAs 0
scalar SolutionNetwork.node[25].appl "finished Task" 364
scalar SolutionNetwork.node[25].appl Tasks 481
scalar SolutionNetwork.node[25].appl avgResponseTime 0.149398862264
scalar SolutionNetwork.node[25].appl COMessages 847
scalar SolutionNetwork.node[25].appl "Handovered CO" 0
scalar SolutionNetwork.node[25].nic.phy80211p busyTime 0.065383680000009
scalar SolutionNetwork.node[25].nic.mac1609_4 ReceivedUnicastPackets 375
scalar SolutionNetwork.node[25].nic.mac1609_4 ReceivedBroadcasts 1971
scalar SolutionNetwork.node[25].nic.mac1609_4 SentPackets 856
scalar SolutionNetwork.node[25].nic.mac1609_4 SentAcknowledgements 0
scalar SolutionNetwork.node[25].nic.mac1609_4 RetriesExceeded 0
scalar SolutionNetwork.node[25].nic.mac1609_4 SNIRLostPackets 24071
scalar SolutionNetwork.node[25].nic.mac1609_4 RXTXLostPackets 17
scalar SolutionNetwork.node[25].nic.mac1609_4 TotalLostPackets 24088
scalar SolutionNetwork.node[25].nic.mac1609_4 DroppedPacketsInMac 0
scalar SolutionNetwork.node[25].nic.mac1609_4 TooLittleTime 0
scalar SolutionNetwork.node[25].nic.mac1609_4 TimesIntoBackoff 894
scalar SolutionNetwork.node[25].nic.mac1609_4 SlotsBackoff 1382
scalar SolutionNetwork.node[25].nic.mac1609_4 NumInternalContention 0
scalar SolutionNetwork.node[25].nic.mac1609_4 totalBusyTime 4.931344
scalar SolutionNetwork.node[25].nic.mac1609_4 retriesExceeded:count 0
attr source org_car2x_veins_modules_mac_sigRetriesExceeded
scalar SolutionNetwork.node[25].nic.mac1609_4 sentAcks:count 0
attr source org_car2x_veins_modules_mac_sigSentAck
scalar SolutionNetwork.node[25].nic.mac1609_4 sentPackets:count 856
attr source org_car2x_veins_modules_mac_sigSentPacket
scalar SolutionNetwork.node[25].nic.mac1609_4 collisions:count 0
attr source org_car2x_veins_modules_mac_sigCollision
scalar SolutionNetwork.node[25].nic.mac1609_4 channelBusy:timeavg 0.065751253333342
attr source org_car2x_veins_modules_mac_sigChannelBusy
scalar SolutionNetwork.node[25].veinsmobility startTime 25
scalar SolutionNetwork.node[25].veinsmobility totalTime 74
scalar SolutionNetwork.node[25].veinsmobility stopTime 100
scalar SolutionNetwork.node[25].veinsmobility minSpeed 33.3333
scalar SolutionNetwork.node[25].veinsmobility maxSpeed 33.3333
scalar SolutionNetwork.node[25].veinsmobility totalDistance 2466.6642
scalar SolutionNetwork.node[25].veinsmobility totalCO2Emission 448.17825332139
scalar SolutionNetwork.node[26].appl generatedWSMs 0
scalar SolutionNetwork.node[26].appl receivedWSMs 391
scalar SolutionNetwork.node[26].appl generatedBSMs 0
scalar SolutionNetwork.node[26].appl receivedBSMs 1935
scalar SolutionNetwork.node[26].appl generatedWSAs 0
scalar SolutionNetwork.node[26].appl receivedWSAs 0
scalar SolutionNetwork.node[26].appl "finished Task" 375
scalar SolutionNetwork.node[26].appl Tasks 480
scalar SolutionNetwork.node[26].appl avgResponseTime 0.153843866595
scalar SolutionNetwork.node[26].appl COMessages 862
scalar SolutionNetwork.node[26].appl "Handovered CO" 1
scalar SolutionNetwork.node[26].nic.phy80211p busyTime 0.063934613333338
scalar SolutionNetwork.node[26].nic.mac1609_4 ReceivedUnicastPackets 391
scalar SolutionNetwork.node[26].nic.mac1609_4 ReceivedBroadcasts 1935
scalar SolutionNetwork.node[26].nic.mac1609_4 SentPackets 890
scalar SolutionNetwork.node[26].nic.mac1609_4 SentAcknowledgements 0
scalar SolutionNetwork.node[26].nic.mac1609_4 RetriesExceeded 0
scalar SolutionNetwork.node[26].nic.mac1609_4 SNIRLostPackets 24683
scalar SolutionNetwork.node[26].nic.mac1609_4 RXTXLostPackets 29
scalar SolutionNetwork.node[26].nic.mac1609_4 TotalLostPackets 24712
scalar SolutionNetwork.node[26].nic.mac1609_4 DroppedPacketsInMac 0
scalar SolutionNetwork.node[26].nic.mac1609_4 TooLittleTime 0
scalar SolutionNetwork.node[26].nic.mac1609_4 TimesIntoBackoff 926
scalar SolutionNetwork.node[26].nic.mac1609_4 SlotsBackoff 1331
scalar SolutionNetwork.node[26].nic.mac1609_4 NumInternalContention 0
scalar SolutionNetwork.node[26].nic.mac1609_4 totalBusyTime 4.83144206416
scalar SolutionNetwork.node[26].nic.mac1609_4 retriesExceeded:count 0
attr source org_car2x_veins_modules_mac_sigRetriesExceeded
scalar SolutionNetwork.node[26].nic.mac1609_4 sentAcks:count 0
attr source org_car2x_veins_modules_mac_sigSentAck
scalar SolutionNetwork.node[26].nic.mac1609_4 sentPackets:count 890
attr source org_car2x_veins_modules_mac_sigSentPacket
scalar SolutionNetwork.node[26].nic.mac1609_4 collisions:count 0
attr source org_car2x_veins_modules_mac_sigCollision
scalar SolutionNetwork.node[26].nic.mac1609_4 channelBusy:timeavg 0.064419227522138
attr source org_car2x_veins_modules_mac_sigChannelBusy
scalar SolutionNetwork.node[26].veinsmobility startTime 27
scalar SolutionNetwork.node[26].veinsmobility totalTime 74
scalar SolutionNetwork.node[26].veinsmobility stopTime 102
scalar SolutionNetwork.node[26].veinsmobility minSpeed 33.3333
scalar SolutionNetwork.node[26].veinsmobility maxSpeed 33.3333
scalar SolutionNetwork.node[26].veinsmobility totalDistance 2466.6642
scalar SolutionNetwork.node[26].veinsmobility totalCO2Emission 448.17825332139
scalar SolutionNetwork.node[27].appl generatedWSMs 0
scalar SolutionNetwork.node[27].appl receivedWSMs 379
scalar SolutionNetwork.node[27].appl generatedBSMs 0
scalar SolutionNetwork.node[27].appl receivedBSMs 1962
scalar SolutionNetwork.node[27].appl generatedWSAs 0
scalar SolutionNetwork.node[27].appl receivedWSAs 0
scalar SolutionNetwork.node[27].appl "finished Task" 364
scalar SolutionNetwork.node[27].appl Tasks 481
scalar SolutionNetwork.node[27].appl avgResponseTime 0.150723953127
scalar SolutionNetwork.node[27].appl COMessages 851
scalar SolutionNetwork.node[27].appl "Handovered CO" 1
scalar SolutionNetwork.node[27].nic.phy80211p busyTime 0.063965546666672
scalar SolutionNetwork.node[27].nic.mac1609_4 ReceivedUnicastPackets 379
scalar SolutionNetwork.node[27].nic.mac1609_4 ReceivedBroadcasts 1962
scalar SolutionNetwork.node[27].nic.mac1609_4 SentPackets 873
scalar SolutionNetwork.node[27].nic.mac1609_4 SentAcknowledgements 0
scalar SolutionNetwork.node[27].nic.mac1609_4 RetriesExceeded 0
scalar SolutionNetwork.node[27].nic.mac1609_4 SNIRLostPackets 24445
scalar SolutionNetwork.node[27].nic.mac1609_4 RXTXLostPackets 28
scalar SolutionNetwork.node[27].nic.mac1609_4 TotalLostPackets 24473
scalar SolutionNetwork.node[27].nic.mac1609_4 DroppedPacketsInMac 0
scalar SolutionNetwork.node[27].nic.mac1609_4 TooLittleTime 0
scalar SolutionNetwork.node[27].nic.mac1609_4 TimesIntoBackoff 910
scalar SolutionNetwork.node[27].nic.mac1609_4 SlotsBackoff 1351
scalar SolutionNetwork.node[27].nic.mac1609_4 NumInternalContention 0
scalar SolutionNetwork.node[27].nic.mac1609_4 totalBusyTime 4.830785
scalar SolutionNetwork.node[27].nic.mac1609_4 retriesExceeded:count 0
attr source org_car2x_veins_modules_mac_sigRetriesExceeded
scalar SolutionNetwork.node[27].nic.mac1609_4 sentAcks:count 0
attr source org_car2x_veins_modules_mac_sigSentAck
scalar SolutionNetwork.node[27].nic.mac1609_4 sentPackets:count 873
attr source org_car2x_veins_modules_mac_sigSentPacket
scalar SolutionNetwork.node[27].nic.mac1609_4 collisions:count 0
attr source org_car2x_veins_modules_mac_sigCollision
scalar SolutionNetwork.node[27].nic.mac1609_4 channelBusy:timeavg 0.064410466666672
attr source org_car2x_veins_modules_mac_sigChannelBusy
scalar SolutionNetwork.node[27].veinsmobility startTime 27
scalar SolutionNetwork.node[27].veinsmobility totalTime 74
scalar SolutionNetwork.node[27].veinsmobility stopTime 102
scalar SolutionNetwork.node[27].veinsmobility minSpeed 33.3333
scalar SolutionNetwork.node[27].veinsmobility maxSpeed 33.3333
scalar SolutionNetwork.node[27].veinsmobility totalDistance 2466.6642
scalar SolutionNetwork.node[27].veinsmobility totalCO2Emission 448.17825332139
scalar SolutionNetwork.node[28].appl generatedWSMs 0
scalar SolutionNetwork.node[28].appl receivedWSMs 398
scalar SolutionNetwork.node[28].appl generatedBSMs 0
scalar SolutionNetwork.node[28].appl receivedBSMs 1917
scalar SolutionNetwork.node[28].appl generatedWSAs 0
scalar SolutionNetwork.node[28].appl receivedWSAs 0
scalar SolutionNetwork.node[28].appl "finished Task" 380
scalar SolutionNetwork.node[28].appl Tasks 481
scalar SolutionNetwork.node[28].appl avgResponseTime 0.15079186383
scalar SolutionNetwork.node[28].appl COMessages 870
scalar SolutionNetwork.node[28].appl "Handovered CO" 0
scalar SolutionNetwork.node[28].nic.phy80211p busyTime 0.06212576
[...]
scalar SolutionNetwork.switch17.eth[1].mac packetReceivedFromUpper:count 41648
attr interpolationmode none
attr source packetReceivedFromUpper
attr title "packet bytes from higher layer, count"
scalar SolutionNetwork.switch17.eth[1].mac packetReceivedFromUpper:sum(packetBytes) 4539632
attr interpolationmode none
attr source packetReceivedFromUpper
attr title "packet bytes from higher layer, sum(packetBytes)"
scalar SolutionNetwork.switch17.eth[1].mac passedUpPk:count 41526
attr interpolationmode none
attr source packetSentToUpper
attr title "packets passed to higher layer, count"
scalar SolutionNetwork.switch17.eth[1].mac passedUpPk:sum(packetBytes) 4526334
attr interpolationmode none
attr source packetSentToUpper
attr title "packets passed to higher layer, sum(packetBytes)"
scalar SolutionNetwork.switch17.eth[1].mac packetDropIncorrectlyReceived:count 0
attr interpolationmode none
attr source packetDropReasonIsIncorrectlyReceived(packetDropped)
attr title "packet drop: incorrectly received, count"
scalar SolutionNetwork.switch17.eth[1].mac packetDropIncorrectlyReceived:sum(packetBytes) 0
attr interpolationmode none
attr source packetDropReasonIsIncorrectlyReceived(packetDropped)
attr title "packet drop: incorrectly received, sum(packetBytes)"
scalar SolutionNetwork.switch17.eth[1].mac packetDropInterfaceDown:count 0
attr interpolationmode none
attr source packetDropReasonIsInterfaceDown(packetDropped)
attr title "packet drop: interface down, count"
scalar SolutionNetwork.switch17.eth[1].mac packetDropInterfaceDown:sum(packetBytes) 0
attr interpolationmode none
attr source packetDropReasonIsInterfaceDown(packetDropped)
attr title "packet drop: interface down, sum(packetBytes)"
scalar SolutionNetwork.switch17.eth[1].mac packetDropNotAddressedToUs:count 0
attr interpolationmode none
attr source packetDropReasonIsNotAddressedToUs(packetDropped)
attr title "packet drop: not addressed to us, count"
scalar SolutionNetwork.switch17.eth[1].mac packetDropNotAddressedToUs:sum(packetBytes) 0
attr interpolationmode none
attr source packetDropReasonIsNotAddressedToUs(packetDropped)
attr title "packet drop: not addressed to us, sum(packetBytes)"
scalar SolutionNetwork.switch17.eth[1].mac backoffSlotsGenerated:count 0
attr interpolationmode none
attr title "backoff, count"
scalar SolutionNetwork.switch17.eth[1].mac collision:count 0
attr interpolationmode none
attr title "collision, count"
scalar SolutionNetwork.switch17.eth[1].mac rxPausePkUnits:count 0
attr interpolationmode none
attr title "pause units received, count"
scalar SolutionNetwork.switch17.eth[1].mac rxPausePkUnits:sum 0
attr interpolationmode none
attr title "pause units received, sum"
scalar SolutionNetwork.switch17.eth[1].mac txPausePkUnits:count 0
attr interpolationmode none
attr title "pause units sent, count"
scalar SolutionNetwork.switch17.eth[1].mac txPausePkUnits:sum 0
attr interpolationmode none
attr title "pause units sent, sum"
scalar SolutionNetwork.switch17.eth[1].mac rxPkOk:count 41526
attr interpolationmode none
attr source rxPkOk
attr title "packets received OK, count"
scalar SolutionNetwork.switch17.eth[1].mac rxPkOk:sum(packetBytes) 4526334
attr interpolationmode none
attr source rxPkOk
attr title "packets received OK, sum(packetBytes)"
scalar SolutionNetwork.switch17.encap pauseSent:count 0
attr title "pause sent, count"
scalar SolutionNetwork.switch17.encap pauseSent:sum 0
attr title "pause sent, sum"
scalar SolutionNetwork.switch17.encap decapPk:count 0
attr interpolationmode none
attr source decapPk
attr title "packets decapsulated, count"
scalar SolutionNetwork.switch17.encap decapPk:sum(packetBytes) 0
attr interpolationmode none
attr source decapPk
attr title "packets decapsulated, sum(packetBytes)"
scalar SolutionNetwork.switch17.encap encapPk:count 0
attr interpolationmode none
attr source encapPk
attr title "packets encapsulated, count"
scalar SolutionNetwork.switch17.encap encapPk:sum(packetBytes) 0
attr interpolationmode none
attr source encapPk
attr title "packets encapsulated, sum(packetBytes)"
scalar SolutionNetwork.switch18.relayUnit "number of received BPDUs from STP module" 0
scalar SolutionNetwork.switch18.relayUnit "number of received frames from network (including BPDUs)" 83174
scalar SolutionNetwork.switch18.relayUnit "number of dropped frames (including BPDUs)" 0
scalar SolutionNetwork.switch18.relayUnit "number of delivered BPDUs to the STP module" 0
scalar SolutionNetwork.switch18.relayUnit "number of dispatched BPDU frames to the network" 0
scalar SolutionNetwork.switch18.relayUnit "number of dispatched non-BDPU frames to the network" 83174
scalar SolutionNetwork.switch18.eth[0].mac.queue packetPopped:count 41526
attr interpolationmode none
attr title "packet popped, count"
scalar SolutionNetwork.switch18.eth[0].mac.queue packetPopped:sum(packetBytes) 4526334
attr interpolationmode none
attr title "packet popped, sum(packetBytes)"
statistic SolutionNetwork.switch18.eth[0].mac.queue queueingTime:histogram
field count 41526
field mean 0
field stddev 0
field min 0
field max 0
field sum 0
field sqrsum 0
attr interpolationmode none
attr source queueingTime(packetPopped)
attr title "queueing times, histogram"
attr unit s
bin	-inf	0
bin	-0.5	0
bin	-0.48	0
bin	-0.46	0
bin	-0.44	0
bin	-0.42	0
bin	-0.4	0
bin	-0.38	0
bin	-0.36	0
bin	-0.34	0
bin	-0.32	0
bin	-0.3	0
bin	-0.28	0
bin	-0.26	0
bin	-0.24	0
bin	-0.22	0
bin	-0.2	0
bin	-0.18	0
bin	-0.16	0
bin	-0.14	0
bin	-0.12	0
bin	-0.1	0
bin	-0.08	0
bin	-0.06	0
bin	-0.04	0
bin	-0.02	0
bin	0	41526
bin	0.02	0
bin	0.04	0
bin	0.06	0
bin	0.08	0
bin	0.1	0
bin	0.12	0
bin	0.14	0
bin	0.16	0
bin	0.18	0
bin	0.2	0
bin	0.22	0
bin	0.24	0
bin	0.26	0
bin	0.28	0
bin	0.3	0
bin	0.32	0
bin	0.34	0
bin	0.36	0
bin	0.38	0
bin	0.4	0
bin	0.42	0
bin	0.44	0
bin	0.46	0
bin	0.48	0
bin	0.5	0
scalar SolutionNetwork.switch18.eth[0].mac.queue queueLength:max 1
attr interpolationmode sample-hold
attr source "count(packetPushed) - count(packetPopped) - count(packetRemoved) - count(packetDropped)"
attr title "queue length, max"
scalar SolutionNetwork.switch18.eth[0].mac.queue queueLength:timeavg 0
attr interpolationmode sample-hold
attr source "count(packetPushed) - count(packetPopped) - count(packetRemoved) - count(packetDropped)"
attr title "queue length, timeavg"
scalar SolutionNetwork.switch18.eth[0].mac.queue packetPushed:count 41526
attr interpolationmode none
attr title "packet pushed, count"
scalar SolutionNetwork.switch18.eth[0].mac.queue packetPushed:sum(packetBytes) 4526334
attr interpolationmode none
attr title "packet pushed, sum(packetBytes)"
scalar SolutionNetwork.switch18.eth[0].mac.queue packetDropQueueOverflow:count 0
attr interpolationmode none
attr source packetDropReasonIsQueueOverflow(packetDropped)
attr title "packet drops: queue overflow, count"
scalar SolutionNetwork.switch18.eth[0].mac.queue packetDropQueueOverflow:sum(packetBytes) 0
attr interpolationmode none
attr source packetDropReasonIsQueueOverflow(packetDropped)
attr title "packet drops: queue overflow, sum(packetBytes)"
scalar SolutionNetwork.switch18.eth[0].mac.queue packetRemoved:count 0
attr interpolationmode none
attr title "packets removed, count"
scalar SolutionNetwork.switch18.eth[0].mac.queue packetRemoved:sum(packetBytes) 0
attr interpolationmode none
attr title "packets removed, sum(packetBytes)"
scalar SolutionNetwork.switch18.eth[0].mac "simulated time" 180
scalar SolutionNetwork.switch18.eth[0].mac full-duplex 1
scalar SolutionNetwork.switch18.eth[0].mac "frames/sec sent" 230.7
scalar SolutionNetwork.switch18.eth[0].mac "frames/sec rcvd" 231.37777777778
scalar SolutionNetwork.switch18.eth[0].mac "bits/sec sent" 201170.4
scalar SolutionNetwork.switch18.eth[0].mac "bits/sec rcvd" 201761.42222222
scalar SolutionNetwork.switch18.eth[0].mac "rx channel idle (%)" 99.997834304
scalar SolutionNetwork.switch18.eth[0].mac "rx channel utilization (%)" 0.002165696
scalar SolutionNetwork.switch18.eth[0].mac "rx channel collision (%)" 0
scalar SolutionNetwork.switch18.eth[0].mac collisions 0
scalar SolutionNetwork.switch18.eth[0].mac backoffs 0
scalar SolutionNetwork.switch18.eth[0].mac txPk:count 41526
attr interpolationmode none
attr source packetSentToLower
attr title "packets transmitted, count"
scalar SolutionNetwork.switch18.eth[0].mac txPk:sum(packetBytes) 4526334
attr interpolationmode none
attr source packetSentToLower
attr title "packets transmitted, sum(packetBytes)"
scalar SolutionNetwork.switch18.eth[0].mac packetReceivedFromUpper:count 41526
attr interpolationmode none
attr source packetReceivedFromUpper
attr title "packet bytes from higher layer, count"
scalar SolutionNetwork.switch18.eth[0].mac packetReceivedFromUpper:sum(packetBytes) 4526334
attr interpolationmode none
attr source packetReceivedFromUpper
attr title "packet bytes from higher layer, sum(packetBytes)"
scalar SolutionNetwork.switch18.eth[0].mac passedUpPk:count 41648
attr interpolationmode none
attr source packetSentToUpper
attr title "packets passed to higher layer, count"
scalar SolutionNetwork.switch18.eth[0].mac passedUpPk:sum(packetBytes) 4539632
attr interpolationmode none
attr source packetSentToUpper
attr title "packets passed to higher layer, sum(packetBytes)"
scalar SolutionNetwork.switch18.eth[0].mac packetDropIncorrectlyReceived:count 0
attr interpolationmode none
attr source packetDropReasonIsIncorrectlyReceived(packetDropped)
attr title "packet drop: incorrectly received, count"
scalar SolutionNetwork.switch18.eth[0].mac packetDropIncorrectlyReceived:sum(packetBytes) 0
attr interpolationmode none
attr source packetDropReasonIsIncorrectlyReceived(packetDropped)
attr title "packet drop: incorrectly received, sum(packetBytes)"
scalar SolutionNetwork.switch18.eth[0].mac packetDropInterfaceDown:count 0
attr interpolationmode none
attr source packetDropReasonIsInterfaceDown(packetDropped)
attr title "packet drop: interface down, count"
scalar SolutionNetwork.switch18.eth[0].mac packetDropInterfaceDown:sum(packetBytes) 0
attr interpolationmode none
attr source packetDropReasonIsInterfaceDown(packetDropped)
attr title "packet drop: interface down, sum(packetBytes)"
scalar SolutionNetwork.switch18.eth[0].mac packetDropNotAddressedToUs:count 0
attr interpolationmode none
attr source packetDropReasonIsNotAddressedToUs(packetDropped)
attr title "packet drop: not addressed to us, count"
scalar SolutionNetwork.switch18.eth[0].mac packetDropNotAddressedToUs:sum(packetBytes) 0
attr interpolationmode none
attr source packetDropReasonIsNotAddressedToUs(packetDropped)
attr title "packet drop: not addressed to us, sum(packetBytes)"
scalar SolutionNetwork.switch18.eth[0].mac backoffSlotsGenerated:count 0
attr interpolationmode none
attr title "backoff, count"
scalar SolutionNetwork.switch18.eth[0].mac collision:count 0
attr interpolationmode none
attr title "collision, count"
scalar SolutionNetwork.switch18.eth[0].mac rxPausePkUnits:count 0
attr interpolationmode none
attr title "pause units received, count"
scalar SolutionNetwork.switch18.eth[0].mac rxPausePkUnits:sum 0
attr interpolationmode none
attr title "pause units received, sum"
scalar SolutionNetwork.switch18.eth[0].mac txPausePkUnits:count 0
attr interpolationmode none
attr title "pause units sent, count"
scalar SolutionNetwork.switch18.eth[0].mac txPausePkUnits:sum 0
attr interpolationmode none
attr title "pause units sent, sum"
scalar SolutionNetwork.switch18.eth[0].mac rxPkOk:count 41648
attr interpolationmode none
attr source rxPkOk
attr title "packets received OK, count"
scalar SolutionNetwork.switch18.eth[0].mac rxPkOk:sum(packetBytes) 4539632
attr interpolationmode none
attr source rxPkOk
attr title "packets received OK, sum(packetBytes)"
scalar SolutionNetwork.switch18.eth[1].mac.queue packetPopped:count 41648
attr interpolationmode none
attr title "packet popped, count"
scalar SolutionNetwork.switch18.eth[1].mac.queue packetPopped:sum(packetBytes) 4539632
attr interpolationmode none
attr title "packet popped, sum(packetBytes)"
statistic SolutionNetwork.switch18.eth[1].mac.queue queueingTime:histogram
field count 41648
field mean 0
field stddev 0
field min 0
field max 0
field sum 0
field sqrsum 0
attr interpolationmode none
attr source queueingTime(packetPopped)
attr title "queueing times, histogram"
attr unit s
bin	-inf	0
bin	-0.5	0
bin	-0.48	0
bin	-0.46	0
bin	-0.44	0
bin	-0.42	0
bin	-0.4	0
bin	-0.38	0
bin	-0.36	0
bin	-0.34	0
bin	-0.32	0
bin	-0.3	0
bin	-0.28	0
bin	-0.26	0
bin	-0.24	0
bin	-0.22	0
bin	-0.2	0
bin	-0.18	0
bin	-0.16	0
bin	-0.14	0
bin	-0.12	0
bin	-0.1	0
bin	-0.08	0
bin	-0.06	0
bin	-0.04	0
bin	-0.02	0
bin	0	41648
bin	0.02	0
bin	0.04	0
bin	0.06	0
bin	0.08	0
bin	0.1	0
bin	0.12	0
bin	0.14	0
bin	0.16	0
bin	0.18	0
bin	0.2	0
bin	0.22	0
bin	0.24	0
bin	0.26	0
bin	0.28	0
bin	0.3	0
bin	0.32	0
bin	0.34	0
bin	0.36	0
bin	0.38	0
bin	0.4	0
bin	0.42	0
bin	0.44	0
bin	0.46	0
bin	0.48	0
bin	0.5	0
scalar SolutionNetwork.switch18.eth[1].mac.queue queueLength:max 1
attr interpolationmode sample-hold
attr source "count(packetPushed) - count(packetPopped) - count(packetRemoved) - count(packetDropped)"
attr title "queue length, max"
scalar SolutionNetwork.switch18.eth[1].mac.queue queueLength:timeavg 0
attr interpolationmode sample-hold
attr source "count(packetPushed) - count(packetPopped) - count(packetRemoved) - count(packetDropped)"
attr title "queue length, timeavg"
scalar SolutionNetwork.switch18.eth[1].mac.queue packetPushed:count 41648
attr interpolationmode none
attr title "packet pushed, count"
scalar SolutionNetwork.switch18.eth[1].mac.queue packetPushed:sum(packetBytes) 4539632
attr interpolationmode none
attr title "packet pushed, sum(packetBytes)"
scalar SolutionNetwork.switch18.eth[1].mac.queue packetDropQueueOverflow:count 0
attr interpolationmode none
attr source packetDropReasonIsQueueOverflow(packetDropped)
attr title "packet drops: queue overflow, count"
scalar SolutionNetwork.switch18.eth[1].mac.queue packetDropQueueOverflow:sum(packetBytes) 0
attr interpolationmode none
attr source packetDropReasonIsQueueOverflow(packetDropped)
attr title "packet drops: queue overflow, sum(packetBytes)"
scalar SolutionNetwork.switch18.eth[1].mac.queue packetRemoved:count 0
attr interpolationmode none
attr title "packets removed, count"
scalar SolutionNetwork.switch18.eth[1].mac.queue packetRemoved:sum(packetBytes) 0
attr interpolationmode none
attr title "packets removed, sum(packetBytes)"
scalar SolutionNetwork.switch18.eth[1].mac "simulated time" 180
scalar SolutionNetwork.switch18.eth[1].mac full-duplex 1
scalar SolutionNetwork.switch18.eth[1].mac "frames/sec sent" 231.37777777778
scalar SolutionNetwork.switch18.eth[1].mac "frames/sec rcvd" 230.7
scalar SolutionNetwork.switch18.eth[1].mac "bits/sec sent" 201761.42222222
scalar SolutionNetwork.switch18.eth[1].mac "bits/sec rcvd" 201170.4
scalar SolutionNetwork.switch18.eth[1].mac "rx channel idle (%)" 99.997840648
scalar SolutionNetwork.switch18.eth[1].mac "rx channel utilization (%)" 0.002159352
scalar SolutionNetwork.switch18.eth[1].mac "rx channel collision (%)" 0
scalar SolutionNetwork.switch18.eth[1].mac collisions 0
scalar SolutionNetwork.switch18.eth[1].mac backoffs 0
scalar SolutionNetwork.switch18.eth[1].mac txPk:count 41648
attr interpolationmode none
attr source packetSentToLower
attr title "packets transmitted, count"
scalar SolutionNetwork.switch18.eth[1].mac txPk:sum(packetBytes) 4539632
attr interpolationmode none
attr source packetSentToLower
attr title "packets transmitted, sum(packetBytes)"
scalar SolutionNetwork.switch18.eth[1].mac packetReceivedFromUpper:count 41648
attr interpolationmode none
attr source packetReceivedFromUpper
attr title "packet bytes from higher layer, count"
scalar SolutionNetwork.switch18.eth[1].mac packetReceivedFromUpper:sum(packetBytes) 4539632
attr interpolationmode none
attr source packetReceivedFromUpper
attr title "packet bytes from higher layer, sum(packetBytes)"
scalar SolutionNetwork.switch18.eth[1].mac passedUpPk:count 41526
attr interpolationmode none
attr source packetSentToUpper
attr title "packets passed to higher layer, count"
scalar SolutionNetwork.switch18.eth[1].mac passedUpPk:sum(packetBytes) 4526334
attr interpolationmode none
attr source packetSentToUpper
attr title "packets passed to higher layer, sum(packetBytes)"
scalar SolutionNetwork.switch18.eth[1].mac packetDropIncorrectlyReceived:count 0
attr interpolationmode none
attr source packetDropReasonIsIncorrectlyReceived(packetDropped)
attr title "packet drop: incorrectly received, count"
scalar SolutionNetwork.switch18.eth[1].mac packetDropIncorrectlyReceived:sum(packetBytes) 0
attr interpolationmode none
attr source packetDropReasonIsIncorrectlyReceived(packetDropped)
attr title "packet drop: incorrectly received, sum(packetBytes)"
scalar SolutionNetwork.switch18.eth[1].mac packetDropInterfaceDown:count 0
attr interpolationmode none
attr source packetDropReasonIsInterfaceDown(packetDropped)
attr title "packet drop: interface down, count"
scalar SolutionNetwork.switch18.eth[1].mac packetDropInterfaceDown:sum(packetBytes) 0
attr interpolationmode none
attr source packetDropReasonIsInterfaceDown(packetDropped)
attr title "packet drop: interface down, sum(packetBytes)"
scalar SolutionNetwork.switch18.eth[1].mac packetDropNotAddressedToUs:count 0
attr interpolationmode none
attr source packetDropReasonIsNotAddressedToUs(packetDropped)
attr title "packet drop: not addressed to us, count"
scalar SolutionNetwork.switch18.eth[1].mac packetDropNotAddressedToUs:sum(packetBytes) 0
attr interpolationmode none
attr source packetDropReasonIsNotAddressedToUs(packetDropped)
attr title "packet drop: not addressed to us, sum(packetBytes)"
scalar SolutionNetwork.switch18.eth[1].mac backoffSlotsGenerated:count 0
attr interpolationmode none
attr title "backoff, count"
scalar SolutionNetwork.switch18.eth[1].mac collision:count 0
attr interpolationmode none
attr title "collision, count"
scalar SolutionNetwork.switch18.eth[1].mac rxPausePkUnits:count 0
attr interpolationmode none
attr title "pause units received, count"
scalar SolutionNetwork.switch18.eth[1].mac rxPausePkUnits:sum 0
attr interpolationmode none
attr title "pause units received, sum"
scalar SolutionNetwork.switch18.eth[1].mac txPausePkUnits:count 0
attr interpolationmode none
attr title "pause units sent, count"
scalar SolutionNetwork.switch18.eth[1].mac txPausePkUnits:sum 0
attr interpolationmode none
attr title "pause units sent, sum"
scalar SolutionNetwork.switch18.eth[1].mac rxPkOk:count 41526
attr interpolationmode none
attr source rxPkOk
attr title "packets received OK, count"
scalar SolutionNetwork.switch18.eth[1].mac rxPkOk:sum(packetBytes) 4526334
attr interpolationmode none
attr source rxPkOk
attr title "packets received OK, sum(packetBytes)"
scalar SolutionNetwork.switch18.encap pauseSent:count 0
attr title "pause sent, count"
scalar SolutionNetwork.switch18.encap pauseSent:sum 0
attr title "pause sent, sum"
scalar SolutionNetwork.switch18.encap decapPk:count 0
attr interpolationmode none
attr source decapPk
attr title "packets decapsulated, count"
scalar SolutionNetwork.switch18.encap decapPk:sum(packetBytes) 0
attr interpolationmode none
attr source decapPk
attr title "packets decapsulated, sum(packetBytes)"
scalar SolutionNetwork.switch18.encap encapPk:count 0
attr interpolationmode none
attr source encapPk
attr title "packets encapsulated, count"
scalar SolutionNetwork.switch18.encap encapPk:sum(packetBytes) 0
attr interpolationmode none
attr source encapPk
attr title "packets encapsulated, sum(packetBytes)"

