version 2
run Default-0-20210612-01:20:30-7232
attr configname Default
attr datetime 20210612-01:20:30
attr experiment Default
attr inifile omnetpp.ini
attr iterationvars ""
attr iterationvarsf ""
attr measurement ""
attr network SolutionNetwork
attr processid 7232
attr repetition 0
attr replication #0
attr resultdir results
attr runnumber 0
attr seedset 7232
param *.playgroundSizeX 2600m
param *.playgroundSizeY 2500m
param *.playgroundSizeZ 50m
param *.annotations.draw true
param *.obstacles.debug false
param *.manager.updateInterval 2.5s
param *.manager.host "\"localhost\""
param *.manager.port 9999
param *.manager.autoShutdown true
param *.manager.launchConfig "xmldoc(\"Solutions.launchd.xml\")"
param *.rsu[0].mobility.x 250
param *.rsu[0].mobility.y 100
param *.rsu[0].mobility.z 0
param *.rsu[1].mobility.x 750
param *.rsu[1].mobility.y 100
param *.rsu[1].mobility.z 0
param *.rsu[2].mobility.x 1250
param *.rsu[2].mobility.y 100
param *.rsu[2].mobility.z 0
param *.rsu[3].mobility.x 1750
param *.rsu[3].mobility.y 100
param *.rsu[3].mobility.z 0
param *.rsu[4].mobility.x 2250
param *.rsu[4].mobility.y 100
param *.rsu[4].mobility.z 0
param *.rsu[*].applType "\"RSUClusterAppOriginal\""
param *.rsu[*].appl.headerLength "80 bit"
param *.rsu[*].appl.sendBeacons true
param *.rsu[*].appl.dataOnSch false
param *.rsu[*].appl.beaconInterval 0s
param *.rsu[*].appl.beaconUserPriority 7
param *.rsu[*].appl.dataUserPriority 5
param *.rsu[*].nic.phy80211p.antennaOffsetZ "0 m"
param *.connectionManager.sendDirect true
param *.connectionManager.maxInterfDist 2600m
param *.connectionManager.drawMaxIntfDist false
param *.**.nic.mac1609_4.useServiceChannel false
param *.**.nic.mac1609_4.txPower 50mW
param *.**.nic.mac1609_4.bitrate 12Mbps
param *.**.nic.phy80211p.minPowerLevel -110dBm
param *.**.nic.phy80211p.allowTxDuringRx true
param *.**.nic.phy80211p.useNoiseFloor true
param *.**.nic.phy80211p.noiseFloor -98dBm
param *.**.nic.phy80211p.decider "xmldoc(\"config.xml\")"
param *.**.nic.phy80211p.analogueModels "xmldoc(\"config.xml\")"
param *.**.nic.phy80211p.usePropagationDelay true
param *.**.nic.phy80211p.antenna "xmldoc(\"antenna.xml\", \"/root/Antenna[@id='monopole']\")"
param *.node[*].nic.phy80211p.antennaOffsetY "0 m"
param *.node[*].nic.phy80211p.antennaOffsetZ "1.895 m"
param *.node[*].applType "\"VehicleApp\""
param *.node[*].appl.headerLength "80 bit"
param *.node[*].appl.sendBeacons false
param *.node[*].appl.dataOnSch false
param *.node[*].appl.beaconInterval 1s
param *.node[*].veinsmobility.x 0
param *.node[*].veinsmobility.y 0
param *.node[*].veinsmobility.z 0
param *.node[*].veinsmobility.setHostSpeed false
param *.node[*0].veinsmobility.accidentCount 0
param *.node[*0].veinsmobility.accidentStart 73s
param *.node[*0].veinsmobility.accidentDuration 50s
param *.ES0.srv.ClockFrequency 4
param *.ES1.srv.ClockFrequency 5
param *.ES2.srv.ClockFrequency 7
param *.ES3.srv.ClockFrequency 5
param *.ES4.srv.ClockFrequency 4
param *.ES5.srv.ClockFrequency 7
param *.ES6.srv.ClockFrequency 5
param *.ES7.srv.ClockFrequency 4

scalar SolutionNetwork.node[0].appl generatedWSMs 0
scalar SolutionNetwork.node[0].appl receivedWSMs 325
scalar SolutionNetwork.node[0].appl generatedBSMs 0
scalar SolutionNetwork.node[0].appl receivedBSMs 2007
scalar SolutionNetwork.node[0].appl generatedWSAs 0
scalar SolutionNetwork.node[0].appl receivedWSAs 0
scalar SolutionNetwork.node[0].appl "finished Task" 311
scalar SolutionNetwork.node[0].appl Tasks 481
scalar SolutionNetwork.node[0].nic.phy80211p busyTime 0.046450773333313
scalar SolutionNetwork.node[0].nic.mac1609_4 ReceivedUnicastPackets 325
scalar SolutionNetwork.node[0].nic.mac1609_4 ReceivedBroadcasts 2007
scalar SolutionNetwork.node[0].nic.mac1609_4 SentPackets 1103
scalar SolutionNetwork.node[0].nic.mac1609_4 SentAcknowledgements 0
scalar SolutionNetwork.node[0].nic.mac1609_4 RetriesExceeded 0
scalar SolutionNetwork.node[0].nic.mac1609_4 SNIRLostPackets 16451
scalar SolutionNetwork.node[0].nic.mac1609_4 RXTXLostPackets 309
scalar SolutionNetwork.node[0].nic.mac1609_4 TotalLostPackets 16760
scalar SolutionNetwork.node[0].nic.mac1609_4 DroppedPacketsInMac 0
scalar SolutionNetwork.node[0].nic.mac1609_4 TooLittleTime 0
scalar SolutionNetwork.node[0].nic.mac1609_4 TimesIntoBackoff 1128
scalar SolutionNetwork.node[0].nic.mac1609_4 SlotsBackoff 1664
scalar SolutionNetwork.node[0].nic.mac1609_4 NumInternalContention 0
scalar SolutionNetwork.node[0].nic.mac1609_4 totalBusyTime 3.482134590022
scalar SolutionNetwork.node[0].nic.mac1609_4 retriesExceeded:count 0
attr source org_car2x_veins_modules_mac_sigRetriesExceeded
scalar SolutionNetwork.node[0].nic.mac1609_4 sentAcks:count 0
attr source org_car2x_veins_modules_mac_sigSentAck
scalar SolutionNetwork.node[0].nic.mac1609_4 sentPackets:count 1103
attr source org_car2x_veins_modules_mac_sigSentPacket
scalar SolutionNetwork.node[0].nic.mac1609_4 collisions:count 0
attr source org_car2x_veins_modules_mac_sigCollision
scalar SolutionNetwork.node[0].nic.mac1609_4 channelBusy:timeavg 0.046428461200274
attr source org_car2x_veins_modules_mac_sigChannelBusy
scalar SolutionNetwork.node[0].veinsmobility startTime 2.5
scalar SolutionNetwork.node[0].veinsmobility totalTime 72.5
scalar SolutionNetwork.node[0].veinsmobility stopTime 77.5
scalar SolutionNetwork.node[0].veinsmobility minSpeed 33.3333
scalar SolutionNetwork.node[0].veinsmobility maxSpeed 33.3333
scalar SolutionNetwork.node[0].veinsmobility totalDistance 2399.9976
scalar SolutionNetwork.node[0].veinsmobility totalCO2Emission 429.75996893832
scalar SolutionNetwork.node[2].appl generatedWSMs 0
scalar SolutionNetwork.node[2].appl receivedWSMs 334
scalar SolutionNetwork.node[2].appl generatedBSMs 0
scalar SolutionNetwork.node[2].appl receivedBSMs 1953
scalar SolutionNetwork.node[2].appl generatedWSAs 0
scalar SolutionNetwork.node[2].appl receivedWSAs 0
scalar SolutionNetwork.node[2].appl "finished Task" 321
scalar SolutionNetwork.node[2].appl Tasks 480
scalar SolutionNetwork.node[2].nic.phy80211p busyTime 0.046336426666646
scalar SolutionNetwork.node[2].nic.mac1609_4 ReceivedUnicastPackets 334
scalar SolutionNetwork.node[2].nic.mac1609_4 ReceivedBroadcasts 1953
scalar SolutionNetwork.node[2].nic.mac1609_4 SentPackets 1138
scalar SolutionNetwork.node[2].nic.mac1609_4 SentAcknowledgements 0
scalar SolutionNetwork.node[2].nic.mac1609_4 RetriesExceeded 0
scalar SolutionNetwork.node[2].nic.mac1609_4 SNIRLostPackets 16885
scalar SolutionNetwork.node[2].nic.mac1609_4 RXTXLostPackets 338
scalar SolutionNetwork.node[2].nic.mac1609_4 TotalLostPackets 17223
scalar SolutionNetwork.node[2].nic.mac1609_4 DroppedPacketsInMac 0
scalar SolutionNetwork.node[2].nic.mac1609_4 TooLittleTime 0
scalar SolutionNetwork.node[2].nic.mac1609_4 TimesIntoBackoff 1166
scalar SolutionNetwork.node[2].nic.mac1609_4 SlotsBackoff 1757
scalar SolutionNetwork.node[2].nic.mac1609_4 NumInternalContention 0
scalar SolutionNetwork.node[2].nic.mac1609_4 totalBusyTime 3.482818
scalar SolutionNetwork.node[2].nic.mac1609_4 retriesExceeded:count 0
attr source org_car2x_veins_modules_mac_sigRetriesExceeded
scalar SolutionNetwork.node[2].nic.mac1609_4 sentAcks:count 0
attr source org_car2x_veins_modules_mac_sigSentAck
scalar SolutionNetwork.node[2].nic.mac1609_4 sentPackets:count 1138
attr source org_car2x_veins_modules_mac_sigSentPacket
scalar SolutionNetwork.node[2].nic.mac1609_4 collisions:count 0
attr source org_car2x_veins_modules_mac_sigCollision
scalar SolutionNetwork.node[2].nic.mac1609_4 channelBusy:timeavg 0.046437573333314
attr source org_car2x_veins_modules_mac_sigChannelBusy
scalar SolutionNetwork.node[2].veinsmobility startTime 2.5
scalar SolutionNetwork.node[2].veinsmobility totalTime 72.5
scalar SolutionNetwork.node[2].veinsmobility stopTime 77.5
scalar SolutionNetwork.node[2].veinsmobility minSpeed 33.3333
scalar SolutionNetwork.node[2].veinsmobility maxSpeed 33.3333
scalar SolutionNetwork.node[2].veinsmobility totalDistance 2399.9976
scalar SolutionNetwork.node[2].veinsmobility totalCO2Emission 429.75996893832
scalar SolutionNetwork.node[1].appl generatedWSMs 0
scalar SolutionNetwork.node[1].appl receivedWSMs 318
scalar SolutionNetwork.node[1].appl generatedBSMs 0
scalar SolutionNetwork.node[1].appl receivedBSMs 1920
scalar SolutionNetwork.node[1].appl generatedWSAs 0
scalar SolutionNetwork.node[1].appl receivedWSAs 0
scalar SolutionNetwork.node[1].appl "finished Task" 303
scalar SolutionNetwork.node[1].appl Tasks 482
scalar SolutionNetwork.node[1].nic.phy80211p busyTime 0.046407039999979
scalar SolutionNetwork.node[1].nic.mac1609_4 ReceivedUnicastPackets 318
scalar SolutionNetwork.node[1].nic.mac1609_4 ReceivedBroadcasts 1920
scalar SolutionNetwork.node[1].nic.mac1609_4 SentPackets 1108
scalar SolutionNetwork.node[1].nic.mac1609_4 SentAcknowledgements 0
scalar SolutionNetwork.node[1].nic.mac1609_4 RetriesExceeded 0
scalar SolutionNetwork.node[1].nic.mac1609_4 SNIRLostPackets 15690
scalar SolutionNetwork.node[1].nic.mac1609_4 RXTXLostPackets 330
scalar SolutionNetwork.node[1].nic.mac1609_4 TotalLostPackets 16020
scalar SolutionNetwork.node[1].nic.mac1609_4 DroppedPacketsInMac 0
scalar SolutionNetwork.node[1].nic.mac1609_4 TooLittleTime 0
scalar SolutionNetwork.node[1].nic.mac1609_4 TimesIntoBackoff 1119
scalar SolutionNetwork.node[1].nic.mac1609_4 SlotsBackoff 1653
scalar SolutionNetwork.node[1].nic.mac1609_4 NumInternalContention 0
scalar SolutionNetwork.node[1].nic.mac1609_4 totalBusyTime 3.48221323664
scalar SolutionNetwork.node[1].nic.mac1609_4 retriesExceeded:count 0
attr source org_car2x_veins_modules_mac_sigRetriesExceeded
scalar SolutionNetwork.node[1].nic.mac1609_4 sentAcks:count 0
attr source org_car2x_veins_modules_mac_sigSentAck
scalar SolutionNetwork.node[1].nic.mac1609_4 sentPackets:count 1108
attr source org_car2x_veins_modules_mac_sigSentPacket
scalar SolutionNetwork.node[1].nic.mac1609_4 collisions:count 0
attr source org_car2x_veins_modules_mac_sigCollision
scalar SolutionNetwork.node[1].nic.mac1609_4 channelBusy:timeavg 0.046429509821847
attr source org_car2x_veins_modules_mac_sigChannelBusy
scalar SolutionNetwork.node[1].veinsmobility startTime 2.5
scalar SolutionNetwork.node[1].veinsmobility totalTime 72.5
scalar SolutionNetwork.node[1].veinsmobility stopTime 77.5
scalar SolutionNetwork.node[1].veinsmobility minSpeed 33.016914058178
scalar SolutionNetwork.node[1].veinsmobility maxSpeed 33.333272408145
scalar SolutionNetwork.node[1].veinsmobility totalDistance 2397.4667056084
scalar SolutionNetwork.node[1].veinsmobility totalCO2Emission 431.60968273328
scalar SolutionNetwork.node[3].appl generatedWSMs 0
scalar SolutionNetwork.node[3].appl receivedWSMs 305
scalar SolutionNetwork.node[3].appl generatedBSMs 0
scalar SolutionNetwork.node[3].appl receivedBSMs 1950
scalar SolutionNetwork.node[3].appl generatedWSAs 0
scalar SolutionNetwork.node[3].appl receivedWSAs 0
scalar SolutionNetwork.node[3].appl "finished Task" 286
scalar SolutionNetwork.node[3].appl Tasks 481
scalar SolutionNetwork.node[3].nic.phy80211p busyTime 0.046457919999979
scalar SolutionNetwork.node[3].nic.mac1609_4 ReceivedUnicastPackets 305
scalar SolutionNetwork.node[3].nic.mac1609_4 ReceivedBroadcasts 1950
scalar SolutionNetwork.node[3].nic.mac1609_4 SentPackets 1088
scalar SolutionNetwork.node[3].nic.mac1609_4 SentAcknowledgements 0
scalar SolutionNetwork.node[3].nic.mac1609_4 RetriesExceeded 0
scalar SolutionNetwork.node[3].nic.mac1609_4 SNIRLostPackets 15997
scalar SolutionNetwork.node[3].nic.mac1609_4 RXTXLostPackets 321
scalar SolutionNetwork.node[3].nic.mac1609_4 TotalLostPackets 16318
scalar SolutionNetwork.node[3].nic.mac1609_4 DroppedPacketsInMac 0
scalar SolutionNetwork.node[3].nic.mac1609_4 TooLittleTime 0
scalar SolutionNetwork.node[3].nic.mac1609_4 TimesIntoBackoff 1120
scalar SolutionNetwork.node[3].nic.mac1609_4 SlotsBackoff 1646
scalar SolutionNetwork.node[3].nic.mac1609_4 NumInternalContention 0
scalar SolutionNetwork.node[3].nic.mac1609_4 totalBusyTime 3.482768
scalar SolutionNetwork.node[3].nic.mac1609_4 retriesExceeded:count 0
attr source org_car2x_veins_modules_mac_sigRetriesExceeded
scalar SolutionNetwork.node[3].nic.mac1609_4 sentAcks:count 0
attr source org_car2x_veins_modules_mac_sigSentAck
scalar SolutionNetwork.node[3].nic.mac1609_4 sentPackets:count 1088
attr source org_car2x_veins_modules_mac_sigSentPacket
scalar SolutionNetwork.node[3].nic.mac1609_4 collisions:count 0
attr source org_car2x_veins_modules_mac_sigCollision
scalar SolutionNetwork.node[3].nic.mac1609_4 channelBusy:timeavg 0.046436906666647
attr source org_car2x_veins_modules_mac_sigChannelBusy
scalar SolutionNetwork.node[3].veinsmobility startTime 2.5
scalar SolutionNetwork.node[3].veinsmobility totalTime 72.5
scalar SolutionNetwork.node[3].veinsmobility stopTime 77.5
scalar SolutionNetwork.node[3].veinsmobility minSpeed 33.3333
scalar SolutionNetwork.node[3].veinsmobility maxSpeed 33.3333
scalar SolutionNetwork.node[3].veinsmobility totalDistance 2399.9976
scalar SolutionNetwork.node[3].veinsmobility totalCO2Emission 429.75996893832
scalar SolutionNetwork.node[5].appl generatedWSMs 0
scalar SolutionNetwork.node[5].appl receivedWSMs 339
scalar SolutionNetwork.node[5].appl generatedBSMs 0
scalar SolutionNetwork.node[5].appl receivedBSMs 2002
scalar SolutionNetwork.node[5].appl generatedWSAs 0
scalar SolutionNetwork.node[5].appl receivedWSAs 0
scalar SolutionNetwork.node[5].appl "finished Task" 327
scalar SolutionNetwork.node[5].appl Tasks 481
scalar SolutionNetwork.node[5].nic.phy80211p busyTime 0.047591466666645
scalar SolutionNetwork.node[5].nic.mac1609_4 ReceivedUnicastPackets 339
scalar SolutionNetwork.node[5].nic.mac1609_4 ReceivedBroadcasts 2002
scalar SolutionNetwork.node[5].nic.mac1609_4 SentPackets 830
scalar SolutionNetwork.node[5].nic.mac1609_4 SentAcknowledgements 0
scalar SolutionNetwork.node[5].nic.mac1609_4 RetriesExceeded 0
scalar SolutionNetwork.node[5].nic.mac1609_4 SNIRLostPackets 15534
scalar SolutionNetwork.node[5].nic.mac1609_4 RXTXLostPackets 12
scalar SolutionNetwork.node[5].nic.mac1609_4 TotalLostPackets 15546
scalar SolutionNetwork.node[5].nic.mac1609_4 DroppedPacketsInMac 0
scalar SolutionNetwork.node[5].nic.mac1609_4 TooLittleTime 0
scalar SolutionNetwork.node[5].nic.mac1609_4 TimesIntoBackoff 854
scalar SolutionNetwork.node[5].nic.mac1609_4 SlotsBackoff 1237
scalar SolutionNetwork.node[5].nic.mac1609_4 NumInternalContention 0
scalar SolutionNetwork.node[5].nic.mac1609_4 totalBusyTime 3.52259
scalar SolutionNetwork.node[5].nic.mac1609_4 retriesExceeded:count 0
attr source org_car2x_veins_modules_mac_sigRetriesExceeded
scalar SolutionNetwork.node[5].nic.mac1609_4 sentAcks:count 0
attr source org_car2x_veins_modules_mac_sigSentAck
scalar SolutionNetwork.node[5].nic.mac1609_4 sentPackets:count 830
attr source org_car2x_veins_modules_mac_sigSentPacket
scalar SolutionNetwork.node[5].nic.mac1609_4 collisions:count 0
attr source org_car2x_veins_modules_mac_sigCollision
scalar SolutionNetwork.node[5].nic.mac1609_4 channelBusy:timeavg 0.046967866666647
attr source org_car2x_veins_modules_mac_sigChannelBusy
scalar SolutionNetwork.node[5].veinsmobility startTime 5
scalar SolutionNetwork.node[5].veinsmobility totalTime 72.5
scalar SolutionNetwork.node[5].veinsmobility stopTime 80
scalar SolutionNetwork.node[5].veinsmobility minSpeed 33.33
scalar SolutionNetwork.node[5].veinsmobility maxSpeed 33.33
scalar SolutionNetwork.node[5].veinsmobility totalDistance 2433.09
scalar SolutionNetwork.node[5].veinsmobility totalCO2Emission 429.67770094478
scalar SolutionNetwork.node[4].appl generatedWSMs 0
scalar SolutionNetwork.node[4].appl receivedWSMs 348
scalar SolutionNetwork.node[4].appl generatedBSMs 0
scalar SolutionNetwork.node[4].appl receivedBSMs 1933
scalar SolutionNetwork.node[4].appl generatedWSAs 0
scalar SolutionNetwork.node[4].appl receivedWSAs 0
scalar SolutionNetwork.node[4].appl "finished Task" 335
scalar SolutionNetwork.node[4].appl Tasks 481
scalar SolutionNetwork.node[4].nic.phy80211p busyTime 0.047573439999978
scalar SolutionNetwork.node[4].nic.mac1609_4 ReceivedUnicastPackets 348
scalar SolutionNetwork.node[4].nic.mac1609_4 ReceivedBroadcasts 1933
scalar SolutionNetwork.node[4].nic.mac1609_4 SentPackets 833
scalar SolutionNetwork.node[4].nic.mac1609_4 SentAcknowledgements 0
scalar SolutionNetwork.node[4].nic.mac1609_4 RetriesExceeded 0
scalar SolutionNetwork.node[4].nic.mac1609_4 SNIRLostPackets 15503
scalar SolutionNetwork.node[4].nic.mac1609_4 RXTXLostPackets 18
scalar SolutionNetwork.node[4].nic.mac1609_4 TotalLostPackets 15521
scalar SolutionNetwork.node[4].nic.mac1609_4 DroppedPacketsInMac 0
scalar SolutionNetwork.node[4].nic.mac1609_4 TooLittleTime 0
scalar SolutionNetwork.node[4].nic.mac1609_4 TimesIntoBackoff 858
scalar SolutionNetwork.node[4].nic.mac1609_4 SlotsBackoff 1246
scalar SolutionNetwork.node[4].nic.mac1609_4 NumInternalContention 0
scalar SolutionNetwork.node[4].nic.mac1609_4 totalBusyTime 3.523241
scalar SolutionNetwork.node[4].nic.mac1609_4 retriesExceeded:count 0
attr source org_car2x_veins_modules_mac_sigRetriesExceeded
scalar SolutionNetwork.node[4].nic.mac1609_4 sentAcks:count 0
attr source org_car2x_veins_modules_mac_sigSentAck
scalar SolutionNetwork.node[4].nic.mac1609_4 sentPackets:count 833
attr source org_car2x_veins_modules_mac_sigSentPacket
scalar SolutionNetwork.node[4].nic.mac1609_4 collisions:count 0
attr source org_car2x_veins_modules_mac_sigCollision
scalar SolutionNetwork.node[4].nic.mac1609_4 channelBusy:timeavg 0.046976546666647
attr source org_car2x_veins_modules_mac_sigChannelBusy
scalar SolutionNetwork.node[4].veinsmobility startTime 5
scalar SolutionNetwork.node[4].veinsmobility totalTime 72.5
scalar SolutionNetwork.node[4].veinsmobility stopTime 80
scalar SolutionNetwork.node[4].veinsmobility minSpeed 33.3333
scalar SolutionNetwork.node[4].veinsmobility maxSpeed 33.3333
scalar SolutionNetwork.node[4].veinsmobility totalDistance 2433.3309
scalar SolutionNetwork.node[4].veinsmobility totalCO2Emission 429.75996893832
scalar SolutionNetwork.node[8].appl generatedWSMs 0
scalar SolutionNetwork.node[8].appl receivedWSMs 337
scalar SolutionNetwork.node[8].appl generatedBSMs 0
scalar SolutionNetwork.node[8].appl receivedBSMs 2014
scalar SolutionNetwork.node[8].appl generatedWSAs 0
scalar SolutionNetwork.node[8].appl receivedWSAs 0
scalar SolutionNetwork.node[8].appl "finished Task" 318
scalar SolutionNetwork.node[8].appl Tasks 481
scalar SolutionNetwork.node[8].nic.phy80211p busyTime 0.046472533333312
scalar SolutionNetwork.node[8].nic.mac1609_4 ReceivedUnicastPackets 337
scalar SolutionNetwork.node[8].nic.mac1609_4 ReceivedBroadcasts 2014
scalar SolutionNetwork.node[8].nic.mac1609_4 SentPackets 1075
scalar SolutionNetwork.node[8].nic.mac1609_4 SentAcknowledgements 0
scalar SolutionNetwork.node[8].nic.mac1609_4 RetriesExceeded 0
scalar SolutionNetwork.node[8].nic.mac1609_4 SNIRLostPackets 14499
scalar SolutionNetwork.node[8].nic.mac1609_4 RXTXLostPackets 284
scalar SolutionNetwork.node[8].nic.mac1609_4 TotalLostPackets 14783
scalar SolutionNetwork.node[8].nic.mac1609_4 DroppedPacketsInMac 0
scalar SolutionNetwork.node[8].nic.mac1609_4 TooLittleTime 0
scalar SolutionNetwork.node[8].nic.mac1609_4 TimesIntoBackoff 1115
scalar SolutionNetwork.node[8].nic.mac1609_4 SlotsBackoff 1672
scalar SolutionNetwork.node[8].nic.mac1609_4 NumInternalContention 0
scalar SolutionNetwork.node[8].nic.mac1609_4 totalBusyTime 3.543477362622
scalar SolutionNetwork.node[8].nic.mac1609_4 retriesExceeded:count 0
attr source org_car2x_veins_modules_mac_sigRetriesExceeded
scalar SolutionNetwork.node[8].nic.mac1609_4 sentAcks:count 0
attr source org_car2x_veins_modules_mac_sigSentAck
scalar SolutionNetwork.node[8].nic.mac1609_4 sentPackets:count 1075
attr source org_car2x_veins_modules_mac_sigSentPacket
scalar SolutionNetwork.node[8].nic.mac1609_4 collisions:count 0
attr source org_car2x_veins_modules_mac_sigCollision
scalar SolutionNetwork.node[8].nic.mac1609_4 channelBusy:timeavg 0.04724636483494
attr source org_car2x_veins_modules_mac_sigChannelBusy
scalar SolutionNetwork.node[8].veinsmobility startTime 7.5
scalar SolutionNetwork.node[8].veinsmobility totalTime 72.5
scalar SolutionNetwork.node[8].veinsmobility stopTime 82.5
scalar SolutionNetwork.node[8].veinsmobility minSpeed 33.3333
scalar SolutionNetwork.node[8].veinsmobility maxSpeed 33.3333
scalar SolutionNetwork.node[8].veinsmobility totalDistance 2399.9976
scalar SolutionNetwork.node[8].veinsmobility totalCO2Emission 429.75996893832
scalar SolutionNetwork.node[6].appl generatedWSMs 0
scalar SolutionNetwork.node[6].appl receivedWSMs 362
scalar SolutionNetwork.node[6].appl generatedBSMs 0
scalar SolutionNetwork.node[6].appl receivedBSMs 1897
scalar SolutionNetwork.node[6].appl generatedWSAs 0
scalar SolutionNetwork.node[6].appl receivedWSAs 0
scalar SolutionNetwork.node[6].appl "finished Task" 345
scalar SolutionNetwork.node[6].appl Tasks 481
scalar SolutionNetwork.node[6].nic.phy80211p busyTime 0.046797013333312
scalar SolutionNetwork.node[6].nic.mac1609_4 ReceivedUnicastPackets 362
scalar SolutionNetwork.node[6].nic.mac1609_4 ReceivedBroadcasts 1897
scalar SolutionNetwork.node[6].nic.mac1609_4 SentPackets 1005
scalar SolutionNetwork.node[6].nic.mac1609_4 SentAcknowledgements 0
scalar SolutionNetwork.node[6].nic.mac1609_4 RetriesExceeded 0
scalar SolutionNetwork.node[6].nic.mac1609_4 SNIRLostPackets 14697
scalar SolutionNetwork.node[6].nic.mac1609_4 RXTXLostPackets 176
scalar SolutionNetwork.node[6].nic.mac1609_4 TotalLostPackets 14873
scalar SolutionNetwork.node[6].nic.mac1609_4 DroppedPacketsInMac 0
scalar SolutionNetwork.node[6].nic.mac1609_4 TooLittleTime 0
scalar SolutionNetwork.node[6].nic.mac1609_4 TimesIntoBackoff 1036
scalar SolutionNetwork.node[6].nic.mac1609_4 SlotsBackoff 1554
scalar SolutionNetwork.node[6].nic.mac1609_4 NumInternalContention 0
scalar SolutionNetwork.node[6].nic.mac1609_4 totalBusyTime 3.544026212748
scalar SolutionNetwork.node[6].nic.mac1609_4 retriesExceeded:count 0
attr source org_car2x_veins_modules_mac_sigRetriesExceeded
scalar SolutionNetwork.node[6].nic.mac1609_4 sentAcks:count 0
attr source org_car2x_veins_modules_mac_sigSentAck
scalar SolutionNetwork.node[6].nic.mac1609_4 sentPackets:count 1005
attr source org_car2x_veins_modules_mac_sigSentPacket
scalar SolutionNetwork.node[6].nic.mac1609_4 collisions:count 0
attr source org_car2x_veins_modules_mac_sigCollision
scalar SolutionNetwork.node[6].nic.mac1609_4 channelBusy:timeavg 0.04725368283662
attr source org_car2x_veins_modules_mac_sigChannelBusy
scalar SolutionNetwork.node[6].veinsmobility startTime 7.5
scalar SolutionNetwork.node[6].veinsmobility totalTime 72.5
scalar SolutionNetwork.node[6].veinsmobility stopTime 82.5
scalar SolutionNetwork.node[6].veinsmobility minSpeed 33.3333
scalar SolutionNetwork.node[6].veinsmobility maxSpeed 33.3333
scalar SolutionNetwork.node[6].veinsmobility totalDistance 2399.9976
scalar SolutionNetwork.node[6].veinsmobility totalCO2Emission 429.75996893832
scalar SolutionNetwork.node[9].appl generatedWSMs 0
scalar SolutionNetwork.node[9].appl receivedWSMs 325
scalar SolutionNetwork.node[9].appl generatedBSMs 0
scalar SolutionNetwork.node[9].appl receivedBSMs 1917
scalar SolutionNetwork.node[9].appl generatedWSAs 0
scalar SolutionNetwork.node[9].appl receivedWSAs 0
scalar SolutionNetwork.node[9].appl "finished Task" 308
scalar SolutionNetwork.node[9].appl Tasks 481
scalar SolutionNetwork.node[9].nic.phy80211p busyTime 0.046507946666646
scalar SolutionNetwork.node[9].nic.mac1609_4 ReceivedUnicastPackets 325
scalar SolutionNetwork.node[9].nic.mac1609_4 ReceivedBroadcasts 1917
scalar SolutionNetwork.node[9].nic.mac1609_4 SentPackets 1062
scalar SolutionNetwork.node[9].nic.mac1609_4 SentAcknowledgements 0
scalar SolutionNetwork.node[9].nic.mac1609_4 RetriesExceeded 0
scalar SolutionNetwork.node[9].nic.mac1609_4 SNIRLostPackets 14546
scalar SolutionNetwork.node[9].nic.mac1609_4 RXTXLostPackets 277
scalar SolutionNetwork.node[9].nic.mac1609_4 TotalLostPackets 14823
scalar SolutionNetwork.node[9].nic.mac1609_4 DroppedPacketsInMac 0
scalar SolutionNetwork.node[9].nic.mac1609_4 TooLittleTime 0
scalar SolutionNetwork.node[9].nic.mac1609_4 TimesIntoBackoff 1083
scalar SolutionNetwork.node[9].nic.mac1609_4 SlotsBackoff 1621
scalar SolutionNetwork.node[9].nic.mac1609_4 NumInternalContention 0
scalar SolutionNetwork.node[9].nic.mac1609_4 totalBusyTime 3.543631896453
scalar SolutionNetwork.node[9].nic.mac1609_4 retriesExceeded:count 0
attr source org_car2x_veins_modules_mac_sigRetriesExceeded
scalar SolutionNetwork.node[9].nic.mac1609_4 sentAcks:count 0
attr source org_car2x_veins_modules_mac_sigSentAck
scalar SolutionNetwork.node[9].nic.mac1609_4 sentPackets:count 1062
attr source org_car2x_veins_modules_mac_sigSentPacket
scalar SolutionNetwork.node[9].nic.mac1609_4 collisions:count 0
attr source org_car2x_veins_modules_mac_sigCollision
scalar SolutionNetwork.node[9].nic.mac1609_4 channelBusy:timeavg 0.04724842528602
attr source org_car2x_veins_modules_mac_sigChannelBusy
scalar SolutionNetwork.node[9].veinsmobility startTime 7.5
scalar SolutionNetwork.node[9].veinsmobility totalTime 72.5
scalar SolutionNetwork.node[9].veinsmobility stopTime 82.5
scalar SolutionNetwork.node[9].veinsmobility minSpeed 32.888289147927
scalar SolutionNetwork.node[9].veinsmobility maxSpeed 33.333261190834
scalar SolutionNetwork.node[9].veinsmobility totalDistance 2396.4377848476
scalar SolutionNetwork.node[9].veinsmobility totalCO2Emission 432.35729843972
scalar SolutionNetwork.node[7].appl generatedWSMs 0
scalar SolutionNetwork.node[7].appl receivedWSMs 363
scalar SolutionNetwork.node[7].appl generatedBSMs 0
scalar SolutionNetwork.node[7].appl receivedBSMs 1982
scalar SolutionNetwork.node[7].appl generatedWSAs 0
scalar SolutionNetwork.node[7].appl receivedWSAs 0
scalar SolutionNetwork.node[7].appl "finished Task" 347
scalar SolutionNetwork.node[7].appl Tasks 498
scalar SolutionNetwork.node[7].nic.phy80211p busyTime 0.046163303225785
scalar SolutionNetwork.node[7].nic.mac1609_4 ReceivedUnicastPackets 363
scalar SolutionNetwork.node[7].nic.mac1609_4 ReceivedBroadcasts 1982
scalar SolutionNetwork.node[7].nic.mac1609_4 SentPackets 1022
scalar SolutionNetwork.node[7].nic.mac1609_4 SentAcknowledgements 0
scalar SolutionNetwork.node[7].nic.mac1609_4 RetriesExceeded 0
scalar SolutionNetwork.node[7].nic.mac1609_4 SNIRLostPackets 14989
scalar SolutionNetwork.node[7].nic.mac1609_4 RXTXLostPackets 181
scalar SolutionNetwork.node[7].nic.mac1609_4 TotalLostPackets 15170
scalar SolutionNetwork.node[7].nic.mac1609_4 DroppedPacketsInMac 0
scalar SolutionNetwork.node[7].nic.mac1609_4 TooLittleTime 0
scalar SolutionNetwork.node[7].nic.mac1609_4 TimesIntoBackoff 1056
scalar SolutionNetwork.node[7].nic.mac1609_4 SlotsBackoff 1546
scalar SolutionNetwork.node[7].nic.mac1609_4 NumInternalContention 0
scalar SolutionNetwork.node[7].nic.mac1609_4 totalBusyTime 3.614566013352
scalar SolutionNetwork.node[7].nic.mac1609_4 retriesExceeded:count 0
attr source org_car2x_veins_modules_mac_sigRetriesExceeded
scalar SolutionNetwork.node[7].nic.mac1609_4 sentAcks:count 0
attr source org_car2x_veins_modules_mac_sigSentAck
scalar SolutionNetwork.node[7].nic.mac1609_4 sentPackets:count 1022
attr source org_car2x_veins_modules_mac_sigSentPacket
scalar SolutionNetwork.node[7].nic.mac1609_4 collisions:count 0
attr source org_car2x_veins_modules_mac_sigCollision
scalar SolutionNetwork.node[7].nic.mac1609_4 channelBusy:timeavg 0.046639561462586
attr source org_car2x_veins_modules_mac_sigChannelBusy
scalar SolutionNetwork.node[7].veinsmobility startTime 7.5
scalar SolutionNetwork.node[7].veinsmobility totalTime 75
scalar SolutionNetwork.node[7].veinsmobility stopTime 85
scalar SolutionNetwork.node[7].veinsmobility minSpeed 32.679980650969
scalar SolutionNetwork.node[7].veinsmobility maxSpeed 33.3333
scalar SolutionNetwork.node[7].veinsmobility totalDistance 2494.7712505616
scalar SolutionNetwork.node[7].veinsmobility totalCO2Emission 448.91172292491
scalar SolutionNetwork.node[11].appl generatedWSMs 0
scalar SolutionNetwork.node[11].appl receivedWSMs 330
scalar SolutionNetwork.node[11].appl generatedBSMs 0
scalar SolutionNetwork.node[11].appl receivedBSMs 2006
scalar SolutionNetwork.node[11].appl generatedWSAs 0
scalar SolutionNetwork.node[11].appl receivedWSAs 0
scalar SolutionNetwork.node[11].appl "finished Task" 317
scalar SolutionNetwork.node[11].appl Tasks 482
scalar SolutionNetwork.node[11].nic.phy80211p busyTime 0.046575253333312
scalar SolutionNetwork.node[11].nic.mac1609_4 ReceivedUnicastPackets 330
scalar SolutionNetwork.node[11].nic.mac1609_4 ReceivedBroadcasts 2006
scalar SolutionNetwork.node[11].nic.mac1609_4 SentPackets 884
scalar SolutionNetwork.node[11].nic.mac1609_4 SentAcknowledgements 0
scalar SolutionNetwork.node[11].nic.mac1609_4 RetriesExceeded 0
scalar SolutionNetwork.node[11].nic.mac1609_4 SNIRLostPackets 14487
scalar SolutionNetwork.node[11].nic.mac1609_4 RXTXLostPackets 86
scalar SolutionNetwork.node[11].nic.mac1609_4 TotalLostPackets 14573
scalar SolutionNetwork.node[11].nic.mac1609_4 DroppedPacketsInMac 0
scalar SolutionNetwork.node[11].nic.mac1609_4 TooLittleTime 0
scalar SolutionNetwork.node[11].nic.mac1609_4 TimesIntoBackoff 915
scalar SolutionNetwork.node[11].nic.mac1609_4 SlotsBackoff 1375
scalar SolutionNetwork.node[11].nic.mac1609_4 NumInternalContention 0
scalar SolutionNetwork.node[11].nic.mac1609_4 totalBusyTime 3.527483129807
scalar SolutionNetwork.node[11].nic.mac1609_4 retriesExceeded:count 0
attr source org_car2x_veins_modules_mac_sigRetriesExceeded
scalar SolutionNetwork.node[11].nic.mac1609_4 sentAcks:count 0
attr source org_car2x_veins_modules_mac_sigSentAck
scalar SolutionNetwork.node[11].nic.mac1609_4 sentPackets:count 884
attr source org_car2x_veins_modules_mac_sigSentPacket
scalar SolutionNetwork.node[11].nic.mac1609_4 collisions:count 0
attr source org_car2x_veins_modules_mac_sigCollision
scalar SolutionNetwork.node[11].nic.mac1609_4 channelBusy:timeavg 0.047033108397406
attr source org_car2x_veins_modules_mac_sigChannelBusy
scalar SolutionNetwork.node[11].veinsmobility startTime 10
scalar SolutionNetwork.node[11].veinsmobility totalTime 72.5
scalar SolutionNetwork.node[11].veinsmobility stopTime 85
scalar SolutionNetwork.node[11].veinsmobility minSpeed 33.3333
scalar SolutionNetwork.node[11].veinsmobility maxSpeed 33.3333
scalar SolutionNetwork.node[11].veinsmobility totalDistance 2433.3309
scalar SolutionNetwork.node[11].veinsmobility totalCO2Emission 429.75996893832
scalar SolutionNetwork.node[10].appl generatedWSMs 0
scalar SolutionNetwork.node[10].appl receivedWSMs 330
scalar SolutionNetwork.node[10].appl generatedBSMs 0
scalar SolutionNetwork.node[10].appl receivedBSMs 1937
scalar SolutionNetwork.node[10].appl generatedWSAs 0
scalar SolutionNetwork.node[10].appl receivedWSAs 0
scalar SolutionNetwork.node[10].appl "finished Task" 314
scalar SolutionNetwork.node[10].appl Tasks 481
scalar SolutionNetwork.node[10].nic.phy80211p busyTime 0.046821759999979
scalar SolutionNetwork.node[10].nic.mac1609_4 ReceivedUnicastPackets 330
scalar SolutionNetwork.node[10].nic.mac1609_4 ReceivedBroadcasts 1937
scalar SolutionNetwork.node[10].nic.mac1609_4 SentPackets 814
scalar SolutionNetwork.node[10].nic.mac1609_4 SentAcknowledgements 0
scalar SolutionNetwork.node[10].nic.mac1609_4 RetriesExceeded 0
scalar SolutionNetwork.node[10].nic.mac1609_4 SNIRLostPackets 14570
scalar SolutionNetwork.node[10].nic.mac1609_4 RXTXLostPackets 21
scalar SolutionNetwork.node[10].nic.mac1609_4 TotalLostPackets 14591
scalar SolutionNetwork.node[10].nic.mac1609_4 DroppedPacketsInMac 0
scalar SolutionNetwork.node[10].nic.mac1609_4 TooLittleTime 0
scalar SolutionNetwork.node[10].nic.mac1609_4 TimesIntoBackoff 840
scalar SolutionNetwork.node[10].nic.mac1609_4 SlotsBackoff 1285
scalar SolutionNetwork.node[10].nic.mac1609_4 NumInternalContention 0
scalar SolutionNetwork.node[10].nic.mac1609_4 totalBusyTime 3.528038007162
scalar SolutionNetwork.node[10].nic.mac1609_4 retriesExceeded:count 0
attr source org_car2x_veins_modules_mac_sigRetriesExceeded
scalar SolutionNetwork.node[10].nic.mac1609_4 sentAcks:count 0
attr source org_car2x_veins_modules_mac_sigSentAck
scalar SolutionNetwork.node[10].nic.mac1609_4 sentPackets:count 814
attr source org_car2x_veins_modules_mac_sigSentPacket
scalar SolutionNetwork.node[10].nic.mac1609_4 collisions:count 0
attr source org_car2x_veins_modules_mac_sigCollision
scalar SolutionNetwork.node[10].nic.mac1609_4 channelBusy:timeavg 0.04704050676214
attr source org_car2x_veins_modules_mac_sigChannelBusy
scalar SolutionNetwork.node[10].veinsmobility startTime 10
scalar SolutionNetwork.node[10].veinsmobility totalTime 72.5
scalar SolutionNetwork.node[10].veinsmobility stopTime 85
scalar SolutionNetwork.node[10].veinsmobility minSpeed 33.3333
scalar SolutionNetwork.node[10].veinsmobility maxSpeed 33.3333
scalar SolutionNetwork.node[10].veinsmobility totalDistance 2433.3309
scalar SolutionNetwork.node[10].veinsmobility totalCO2Emission 429.75996893832
scalar SolutionNetwork.node[12].appl generatedWSMs 0
scalar SolutionNetwork.node[12].appl receivedWSMs 338
scalar SolutionNetwork.node[12].appl generatedBSMs 0
scalar SolutionNetwork.node[12].appl receivedBSMs 2018
scalar SolutionNetwork.node[12].appl generatedWSAs 0
scalar SolutionNetwork.node[12].appl receivedWSAs 0
scalar SolutionNetwork.node[12].appl "finished Task" 324
scalar SolutionNetwork.node[12].appl Tasks 497
scalar SolutionNetwork.node[12].nic.phy80211p busyTime 0.045744929032237
scalar SolutionNetwork.node[12].nic.mac1609_4 ReceivedUnicastPackets 338
scalar SolutionNetwork.node[12].nic.mac1609_4 ReceivedBroadcasts 2018
scalar SolutionNetwork.node[12].nic.mac1609_4 SentPackets 903
scalar SolutionNetwork.node[12].nic.mac1609_4 SentAcknowledgements 0
scalar SolutionNetwork.node[12].nic.mac1609_4 RetriesExceeded 0
scalar SolutionNetwork.node[12].nic.mac1609_4 SNIRLostPackets 14848
scalar SolutionNetwork.node[12].nic.mac1609_4 RXTXLostPackets 85
scalar SolutionNetwork.node[12].nic.mac1609_4 TotalLostPackets 14933
scalar SolutionNetwork.node[12].nic.mac1609_4 DroppedPacketsInMac 0
scalar SolutionNetwork.node[12].nic.mac1609_4 TooLittleTime 0
scalar SolutionNetwork.node[12].nic.mac1609_4 TimesIntoBackoff 938
scalar SolutionNetwork.node[12].nic.mac1609_4 SlotsBackoff 1449
scalar SolutionNetwork.node[12].nic.mac1609_4 NumInternalContention 0
scalar SolutionNetwork.node[12].nic.mac1609_4 totalBusyTime 3.581839022452
scalar SolutionNetwork.node[12].nic.mac1609_4 retriesExceeded:count 0
attr source org_car2x_veins_modules_mac_sigRetriesExceeded
scalar SolutionNetwork.node[12].nic.mac1609_4 sentAcks:count 0
attr source org_car2x_veins_modules_mac_sigSentAck
scalar SolutionNetwork.node[12].nic.mac1609_4 sentPackets:count 903
attr source org_car2x_veins_modules_mac_sigSentPacket
scalar SolutionNetwork.node[12].nic.mac1609_4 collisions:count 0
attr source org_car2x_veins_modules_mac_sigCollision
scalar SolutionNetwork.node[12].nic.mac1609_4 channelBusy:timeavg 0.046217277709038
attr source org_car2x_veins_modules_mac_sigChannelBusy
scalar SolutionNetwork.node[12].veinsmobility startTime 10
scalar SolutionNetwork.node[12].veinsmobility totalTime 75
scalar SolutionNetwork.node[12].veinsmobility stopTime 87.5
scalar SolutionNetwork.node[12].veinsmobility minSpeed 32.64965262591
scalar SolutionNetwork.node[12].veinsmobility maxSpeed 33.3333
scalar SolutionNetwork.node[12].veinsmobility totalDistance 2493.7473748984
scalar SolutionNetwork.node[12].veinsmobility totalCO2Emission 448.96796095148
scalar SolutionNetwork.node[13].appl generatedWSMs 0
scalar SolutionNetwork.node[13].appl receivedWSMs 336
scalar SolutionNetwork.node[13].appl generatedBSMs 0
scalar SolutionNetwork.node[13].appl receivedBSMs 1896
scalar SolutionNetwork.node[13].appl generatedWSAs 0
scalar SolutionNetwork.node[13].appl receivedWSAs 0
scalar SolutionNetwork.node[13].appl "finished Task" 323
scalar SolutionNetwork.node[13].appl Tasks 481
scalar SolutionNetwork.node[13].nic.phy80211p busyTime 0.046151466666646
scalar SolutionNetwork.node[13].nic.mac1609_4 ReceivedUnicastPackets 336
scalar SolutionNetwork.node[13].nic.mac1609_4 ReceivedBroadcasts 1896
scalar SolutionNetwork.node[13].nic.mac1609_4 SentPackets 869
scalar SolutionNetwork.node[13].nic.mac1609_4 SentAcknowledgements 0
scalar SolutionNetwork.node[13].nic.mac1609_4 RetriesExceeded 0
scalar SolutionNetwork.node[13].nic.mac1609_4 SNIRLostPackets 14374
scalar SolutionNetwork.node[13].nic.mac1609_4 RXTXLostPackets 76
scalar SolutionNetwork.node[13].nic.mac1609_4 TotalLostPackets 14450
scalar SolutionNetwork.node[13].nic.mac1609_4 DroppedPacketsInMac 0
scalar SolutionNetwork.node[13].nic.mac1609_4 TooLittleTime 0
scalar SolutionNetwork.node[13].nic.mac1609_4 TimesIntoBackoff 899
scalar SolutionNetwork.node[13].nic.mac1609_4 SlotsBackoff 1362
scalar SolutionNetwork.node[13].nic.mac1609_4 NumInternalContention 0
scalar SolutionNetwork.node[13].nic.mac1609_4 totalBusyTime 3.500085514153
scalar SolutionNetwork.node[13].nic.mac1609_4 retriesExceeded:count 0
attr source org_car2x_veins_modules_mac_sigRetriesExceeded
scalar SolutionNetwork.node[13].nic.mac1609_4 sentAcks:count 0
attr source org_car2x_veins_modules_mac_sigSentAck
scalar SolutionNetwork.node[13].nic.mac1609_4 sentPackets:count 869
attr source org_car2x_veins_modules_mac_sigSentPacket
scalar SolutionNetwork.node[13].nic.mac1609_4 collisions:count 0
attr source org_car2x_veins_modules_mac_sigCollision
scalar SolutionNetwork.node[13].nic.mac1609_4 channelBusy:timeavg 0.046667806855353
attr source org_car2x_veins_modules_mac_sigChannelBusy
scalar SolutionNetwork.node[13].veinsmobility startTime 12.5
scalar SolutionNetwork.node[13].veinsmobility totalTime 72.5
scalar SolutionNetwork.node[13].veinsmobility stopTime 87.5
scalar SolutionNetwork.node[13].veinsmobility minSpeed 33.3333
scalar SolutionNetwork.node[13].veinsmobility maxSpeed 33.3333
scalar SolutionNetwork.node[13].veinsmobility totalDistance 2399.9976
scalar SolutionNetwork.node[13].veinsmobility totalCO2Emission 429.75996893832
scalar SolutionNetwork.node[15].appl generatedWSMs 0
scalar SolutionNetwork.node[15].appl receivedWSMs 338
scalar SolutionNetwork.node[15].appl generatedBSMs 0
scalar SolutionNetwork.node[15].appl receivedBSMs 1927
scalar SolutionNetwork.node[15].appl generatedWSAs 0
scalar SolutionNetwork.node[15].appl receivedWSAs 0
scalar SolutionNetwork.node[15].appl "finished Task" 325
scalar SolutionNetwork.node[15].appl Tasks 482
scalar SolutionNetwork.node[15].nic.phy80211p busyTime 0.046344746666646
scalar SolutionNetwork.node[15].nic.mac1609_4 ReceivedUnicastPackets 338
scalar SolutionNetwork.node[15].nic.mac1609_4 ReceivedBroadcasts 1927
scalar SolutionNetwork.node[15].nic.mac1609_4 SentPackets 822
scalar SolutionNetwork.node[15].nic.mac1609_4 SentAcknowledgements 0
scalar SolutionNetwork.node[15].nic.mac1609_4 RetriesExceeded 0
scalar SolutionNetwork.node[15].nic.mac1609_4 SNIRLostPackets 14689
scalar SolutionNetwork.node[15].nic.mac1609_4 RXTXLostPackets 16
scalar SolutionNetwork.node[15].nic.mac1609_4 TotalLostPackets 14705
scalar SolutionNetwork.node[15].nic.mac1609_4 DroppedPacketsInMac 0
scalar SolutionNetwork.node[15].nic.mac1609_4 TooLittleTime 0
scalar SolutionNetwork.node[15].nic.mac1609_4 TimesIntoBackoff 851
scalar SolutionNetwork.node[15].nic.mac1609_4 SlotsBackoff 1305
scalar SolutionNetwork.node[15].nic.mac1609_4 NumInternalContention 0
scalar SolutionNetwork.node[15].nic.mac1609_4 totalBusyTime 3.499598
scalar SolutionNetwork.node[15].nic.mac1609_4 retriesExceeded:count 0
attr source org_car2x_veins_modules_mac_sigRetriesExceeded
scalar SolutionNetwork.node[15].nic.mac1609_4 sentAcks:count 0
attr source org_car2x_veins_modules_mac_sigSentAck
scalar SolutionNetwork.node[15].nic.mac1609_4 sentPackets:count 822
attr source org_car2x_veins_modules_mac_sigSentPacket
scalar SolutionNetwork.node[15].nic.mac1609_4 collisions:count 0
attr source org_car2x_veins_modules_mac_sigCollision
scalar SolutionNetwork.node[15].nic.mac1609_4 channelBusy:timeavg 0.046661306666647
attr source org_car2x_veins_modules_mac_sigChannelBusy
scalar SolutionNetwork.node[15].veinsmobility startTime 12.5
scalar SolutionNetwork.node[15].veinsmobility totalTime 72.5
scalar SolutionNetwork.node[15].veinsmobility stopTime 87.5
scalar SolutionNetwork.node[15].veinsmobility minSpeed 33.33
scalar SolutionNetwork.node[15].veinsmobility maxSpeed 33.33
scalar SolutionNetwork.node[15].veinsmobility totalDistance 2399.76
scalar SolutionNetwork.node[15].veinsmobility totalCO2Emission 429.67770094478
scalar SolutionNetwork.node[14].appl generatedWSMs 0
scalar SolutionNetwork.node[14].appl receivedWSMs 346
scalar SolutionNetwork.node[14].appl generatedBSMs 0
scalar SolutionNetwork.node[14].appl receivedBSMs 1991
scalar SolutionNetwork.node[14].appl generatedWSAs 0
scalar SolutionNetwork.node[14].appl receivedWSAs 0
scalar SolutionNetwork.node[14].appl "finished Task" 326
scalar SolutionNetwork.node[14].appl Tasks 497
scalar SolutionNetwork.node[14].nic.phy80211p busyTime 0.045098941935463
scalar SolutionNetwork.node[14].nic.mac1609_4 ReceivedUnicastPackets 346
scalar SolutionNetwork.node[14].nic.mac1609_4 ReceivedBroadcasts 1991
scalar SolutionNetwork.node[14].nic.mac1609_4 SentPackets 900
scalar SolutionNetwork.node[14].nic.mac1609_4 SentAcknowledgements 0
scalar SolutionNetwork.node[14].nic.mac1609_4 RetriesExceeded 0
scalar SolutionNetwork.node[14].nic.mac1609_4 SNIRLostPackets 14765
scalar SolutionNetwork.node[14].nic.mac1609_4 RXTXLostPackets 79
scalar SolutionNetwork.node[14].nic.mac1609_4 TotalLostPackets 14844
scalar SolutionNetwork.node[14].nic.mac1609_4 DroppedPacketsInMac 0
scalar SolutionNetwork.node[14].nic.mac1609_4 TooLittleTime 0
scalar SolutionNetwork.node[14].nic.mac1609_4 TimesIntoBackoff 919
scalar SolutionNetwork.node[14].nic.mac1609_4 SlotsBackoff 1331
scalar SolutionNetwork.node[14].nic.mac1609_4 NumInternalContention 0
scalar SolutionNetwork.node[14].nic.mac1609_4 totalBusyTime 3.538412005791
scalar SolutionNetwork.node[14].nic.mac1609_4 retriesExceeded:count 0
attr source org_car2x_veins_modules_mac_sigRetriesExceeded
scalar SolutionNetwork.node[14].nic.mac1609_4 sentAcks:count 0
attr source org_car2x_veins_modules_mac_sigSentAck
scalar SolutionNetwork.node[14].nic.mac1609_4 sentPackets:count 900
attr source org_car2x_veins_modules_mac_sigSentPacket
scalar SolutionNetwork.node[14].nic.mac1609_4 collisions:count 0
attr source org_car2x_veins_modules_mac_sigCollision
scalar SolutionNetwork.node[14].nic.mac1609_4 channelBusy:timeavg 0.045657359843864
attr source org_car2x_veins_modules_mac_sigChannelBusy
scalar SolutionNetwork.node[14].veinsmobility startTime 12.5
scalar SolutionNetwork.node[14].veinsmobility totalTime 75
scalar SolutionNetwork.node[14].veinsmobility stopTime 90
scalar SolutionNetwork.node[14].veinsmobility minSpeed 32.549266295007
scalar SolutionNetwork.node[14].veinsmobility maxSpeed 33.3333
scalar SolutionNetwork.node[14].veinsmobility totalDistance 2493.7255968083
scalar SolutionNetwork.node[14].veinsmobility totalCO2Emission 449.66481237383
scalar SolutionNetwork.node[17].appl generatedWSMs 0
scalar SolutionNetwork.node[17].appl receivedWSMs 343
scalar SolutionNetwork.node[17].appl generatedBSMs 0
scalar SolutionNetwork.node[17].appl receivedBSMs 1993
scalar SolutionNetwork.node[17].appl generatedWSAs 0
scalar SolutionNetwork.node[17].appl receivedWSAs 0
scalar SolutionNetwork.node[17].appl "finished Task" 327
scalar SolutionNetwork.node[17].appl Tasks 481
scalar SolutionNetwork.node[17].nic.phy80211p busyTime 0.045428159999979
scalar SolutionNetwork.node[17].nic.mac1609_4 ReceivedUnicastPackets 343
scalar SolutionNetwork.node[17].nic.mac1609_4 ReceivedBroadcasts 1993
scalar SolutionNetwork.node[17].nic.mac1609_4 SentPackets 875
scalar SolutionNetwork.node[17].nic.mac1609_4 SentAcknowledgements 0
scalar SolutionNetwork.node[17].nic.mac1609_4 RetriesExceeded 0
scalar SolutionNetwork.node[17].nic.mac1609_4 SNIRLostPackets 14869
scalar SolutionNetwork.node[17].nic.mac1609_4 RXTXLostPackets 63
scalar SolutionNetwork.node[17].nic.mac1609_4 TotalLostPackets 14932
scalar SolutionNetwork.node[17].nic.mac1609_4 DroppedPacketsInMac 0
scalar SolutionNetwork.node[17].nic.mac1609_4 TooLittleTime 0
scalar SolutionNetwork.node[17].nic.mac1609_4 TimesIntoBackoff 893
scalar SolutionNetwork.node[17].nic.mac1609_4 SlotsBackoff 1358
scalar SolutionNetwork.node[17].nic.mac1609_4 NumInternalContention 0
scalar SolutionNetwork.node[17].nic.mac1609_4 totalBusyTime 3.445198082127
scalar SolutionNetwork.node[17].nic.mac1609_4 retriesExceeded:count 0
attr source org_car2x_veins_modules_mac_sigRetriesExceeded
scalar SolutionNetwork.node[17].nic.mac1609_4 sentAcks:count 0
attr source org_car2x_veins_modules_mac_sigSentAck
scalar SolutionNetwork.node[17].nic.mac1609_4 sentPackets:count 875
attr source org_car2x_veins_modules_mac_sigSentPacket
scalar SolutionNetwork.node[17].nic.mac1609_4 collisions:count 0
attr source org_car2x_veins_modules_mac_sigCollision
scalar SolutionNetwork.node[17].nic.mac1609_4 channelBusy:timeavg 0.04593631491446
attr source org_car2x_veins_modules_mac_sigChannelBusy
scalar SolutionNetwork.node[17].veinsmobility startTime 15
scalar SolutionNetwork.node[17].veinsmobility totalTime 72.5
scalar SolutionNetwork.node[17].veinsmobility stopTime 90
scalar SolutionNetwork.node[17].veinsmobility minSpeed 33.3333
scalar SolutionNetwork.node[17].veinsmobility maxSpeed 33.3333
scalar SolutionNetwork.node[17].veinsmobility totalDistance 2433.3309
scalar SolutionNetwork.node[17].veinsmobility totalCO2Emission 429.75996893832
scalar SolutionNetwork.node[16].appl generatedWSMs 0
scalar SolutionNetwork.node[16].appl receivedWSMs 358
scalar SolutionNetwork.node[16].appl generatedBSMs 0
scalar SolutionNetwork.node[16].appl receivedBSMs 1946
scalar SolutionNetwork.node[16].appl generatedWSAs 0
scalar SolutionNetwork.node[16].appl receivedWSAs 0
scalar SolutionNetwork.node[16].appl "finished Task" 347
scalar SolutionNetwork.node[16].appl Tasks 482
scalar SolutionNetwork.node[16].nic.phy80211p busyTime 0.045558613333313
scalar SolutionNetwork.node[16].nic.mac1609_4 ReceivedUnicastPackets 358
scalar SolutionNetwork.node[16].nic.mac1609_4 ReceivedBroadcasts 1946
scalar SolutionNetwork.node[16].nic.mac1609_4 SentPackets 850
scalar SolutionNetwork.node[16].nic.mac1609_4 SentAcknowledgements 0
scalar SolutionNetwork.node[16].nic.mac1609_4 RetriesExceeded 0
scalar SolutionNetwork.node[16].nic.mac1609_4 SNIRLostPackets 15367
scalar SolutionNetwork.node[16].nic.mac1609_4 RXTXLostPackets 17
scalar SolutionNetwork.node[16].nic.mac1609_4 TotalLostPackets 15384
scalar SolutionNetwork.node[16].nic.mac1609_4 DroppedPacketsInMac 0
scalar SolutionNetwork.node[16].nic.mac1609_4 TooLittleTime 0
scalar SolutionNetwork.node[16].nic.mac1609_4 TimesIntoBackoff 876
scalar SolutionNetwork.node[16].nic.mac1609_4 SlotsBackoff 1293
scalar SolutionNetwork.node[16].nic.mac1609_4 NumInternalContention 0
scalar SolutionNetwork.node[16].nic.mac1609_4 totalBusyTime 3.445801
scalar SolutionNetwork.node[16].nic.mac1609_4 retriesExceeded:count 0
attr source org_car2x_veins_modules_mac_sigRetriesExceeded
scalar SolutionNetwork.node[16].nic.mac1609_4 sentAcks:count 0
attr source org_car2x_veins_modules_mac_sigSentAck
scalar SolutionNetwork.node[16].nic.mac1609_4 sentPackets:count 850
attr source org_car2x_veins_modules_mac_sigSentPacket
scalar SolutionNetwork.node[16].nic.mac1609_4 collisions:count 0
attr source org_car2x_veins_modules_mac_sigCollision
scalar SolutionNetwork.node[16].nic.mac1609_4 channelBusy:timeavg 0.045944474447514
attr source org_car2x_veins_modules_mac_sigChannelBusy
scalar SolutionNetwork.node[16].veinsmobility startTime 15
scalar SolutionNetwork.node[16].veinsmobility totalTime 72.5
scalar SolutionNetwork.node[16].veinsmobility stopTime 90
scalar SolutionNetwork.node[16].veinsmobility minSpeed 33.3333
scalar SolutionNetwork.node[16].veinsmobility maxSpeed 33.3333
scalar SolutionNetwork.node[16].veinsmobility totalDistance 2433.3309
scalar SolutionNetwork.node[16].veinsmobility totalCO2Emission 429.75996893832
scalar SolutionNetwork.node[18].appl generatedWSMs 0
scalar SolutionNetwork.node[18].appl receivedWSMs 327
scalar SolutionNetwork.node[18].appl generatedBSMs 0
scalar SolutionNetwork.node[18].appl receivedBSMs 2015
scalar SolutionNetwork.node[18].appl generatedWSAs 0
scalar SolutionNetwork.node[18].appl receivedWSAs 0
scalar SolutionNetwork.node[18].appl "finished Task" 311
scalar SolutionNetwork.node[18].appl Tasks 497
scalar SolutionNetwork.node[18].nic.phy80211p busyTime 0.044296361290302
scalar SolutionNetwork.node[18].nic.mac1609_4 ReceivedUnicastPackets 327
scalar SolutionNetwork.node[18].nic.mac1609_4 ReceivedBroadcasts 2015
scalar SolutionNetwork.node[18].nic.mac1609_4 SentPackets 862
scalar SolutionNetwork.node[18].nic.mac1609_4 SentAcknowledgements 0
scalar SolutionNetwork.node[18].nic.mac1609_4 RetriesExceeded 0
scalar SolutionNetwork.node[18].nic.mac1609_4 SNIRLostPackets 15934
scalar SolutionNetwork.node[18].nic.mac1609_4 RXTXLostPackets 57
scalar SolutionNetwork.node[18].nic.mac1609_4 TotalLostPackets 15991
scalar SolutionNetwork.node[18].nic.mac1609_4 DroppedPacketsInMac 0
scalar SolutionNetwork.node[18].nic.mac1609_4 TooLittleTime 0
scalar SolutionNetwork.node[18].nic.mac1609_4 TimesIntoBackoff 884
scalar SolutionNetwork.node[18].nic.mac1609_4 SlotsBackoff 1329
scalar SolutionNetwork.node[18].nic.mac1609_4 NumInternalContention 0
scalar SolutionNetwork.node[18].nic.mac1609_4 totalBusyTime 3.468398005761
scalar SolutionNetwork.node[18].nic.mac1609_4 retriesExceeded:count 0
attr source org_car2x_veins_modules_mac_sigRetriesExceeded
scalar SolutionNetwork.node[18].nic.mac1609_4 sentAcks:count 0
attr source org_car2x_veins_modules_mac_sigSentAck
scalar SolutionNetwork.node[18].nic.mac1609_4 sentPackets:count 862
attr source org_car2x_veins_modules_mac_sigSentPacket
scalar SolutionNetwork.node[18].nic.mac1609_4 collisions:count 0
attr source org_car2x_veins_modules_mac_sigCollision
scalar SolutionNetwork.node[18].nic.mac1609_4 channelBusy:timeavg 0.044753522654961
attr source org_car2x_veins_modules_mac_sigChannelBusy
scalar SolutionNetwork.node[18].veinsmobility startTime 15
scalar SolutionNetwork.node[18].veinsmobility totalTime 75
scalar SolutionNetwork.node[18].veinsmobility stopTime 92.5
scalar SolutionNetwork.node[18].veinsmobility minSpeed 32.751164325976
scalar SolutionNetwork.node[18].veinsmobility maxSpeed 33.33
scalar SolutionNetwork.node[18].veinsmobility totalDistance 2494.5851101245
scalar SolutionNetwork.node[18].veinsmobility totalCO2Emission 448.34054241809
scalar SolutionNetwork.node[19].appl generatedWSMs 0
scalar SolutionNetwork.node[19].appl receivedWSMs 355
scalar SolutionNetwork.node[19].appl generatedBSMs 0
scalar SolutionNetwork.node[19].appl receivedBSMs 1895
scalar SolutionNetwork.node[19].appl generatedWSAs 0
scalar SolutionNetwork.node[19].appl receivedWSAs 0
scalar SolutionNetwork.node[19].appl "finished Task" 344
scalar SolutionNetwork.node[19].appl Tasks 481
scalar SolutionNetwork.node[19].nic.phy80211p busyTime 0.044317546666647
scalar SolutionNetwork.node[19].nic.mac1609_4 ReceivedUnicastPackets 355
scalar SolutionNetwork.node[19].nic.mac1609_4 ReceivedBroadcasts 1895
scalar SolutionNetwork.node[19].nic.mac1609_4 SentPackets 854
scalar SolutionNetwork.node[19].nic.mac1609_4 SentAcknowledgements 0
scalar SolutionNetwork.node[19].nic.mac1609_4 RetriesExceeded 0
scalar SolutionNetwork.node[19].nic.mac1609_4 SNIRLostPackets 15879
scalar SolutionNetwork.node[19].nic.mac1609_4 RXTXLostPackets 20
scalar SolutionNetwork.node[19].nic.mac1609_4 TotalLostPackets 15899
scalar SolutionNetwork.node[19].nic.mac1609_4 DroppedPacketsInMac 0
scalar SolutionNetwork.node[19].nic.mac1609_4 TooLittleTime 0
scalar SolutionNetwork.node[19].nic.mac1609_4 TimesIntoBackoff 880
scalar SolutionNetwork.node[19].nic.mac1609_4 SlotsBackoff 1349
scalar SolutionNetwork.node[19].nic.mac1609_4 NumInternalContention 0
scalar SolutionNetwork.node[19].nic.mac1609_4 totalBusyTime 3.356878
scalar SolutionNetwork.node[19].nic.mac1609_4 retriesExceeded:count 0
attr source org_car2x_veins_modules_mac_sigRetriesExceeded
scalar SolutionNetwork.node[19].nic.mac1609_4 sentAcks:count 0
attr source org_car2x_veins_modules_mac_sigSentAck
scalar SolutionNetwork.node[19].nic.mac1609_4 sentPackets:count 854
attr source org_car2x_veins_modules_mac_sigSentPacket
scalar SolutionNetwork.node[19].nic.mac1609_4 collisions:count 0
attr source org_car2x_veins_modules_mac_sigCollision
scalar SolutionNetwork.node[19].nic.mac1609_4 channelBusy:timeavg 0.044758373333314
attr source org_car2x_veins_modules_mac_sigChannelBusy
scalar SolutionNetwork.node[19].veinsmobility startTime 17.5
scalar SolutionNetwork.node[19].veinsmobility totalTime 72.5
scalar SolutionNetwork.node[19].veinsmobility stopTime 92.5
scalar SolutionNetwork.node[19].veinsmobility minSpeed 33.3333
scalar SolutionNetwork.node[19].veinsmobility maxSpeed 33.3333
scalar SolutionNetwork.node[19].veinsmobility totalDistance 2399.9976
scalar SolutionNetwork.node[19].veinsmobility totalCO2Emission 429.75996893832
scalar SolutionNetwork.manager roiArea 0
scalar SolutionNetwork.rsu[0].appl generatedWSMs 0
scalar SolutionNetwork.rsu[0].appl receivedWSMs 3083
scalar SolutionNetwork.rsu[0].appl generatedBSMs 2896
scalar SolutionNetwork.rsu[0].appl receivedBSMs 0
scalar SolutionNetwork.rsu[0].appl generatedWSAs 0
scalar SolutionNetwork.rsu[0].appl receivedWSAs 0
scalar SolutionNetwork.rsu[0].nic.phy80211p busyTime 0.023391555555548
scalar SolutionNetwork.rsu[0].nic.mac1609_4 ReceivedUnicastPackets 3083
scalar SolutionNetwork.rsu[0].nic.mac1609_4 ReceivedBroadcasts 0
scalar SolutionNetwork.rsu[0].nic.mac1609_4 SentPackets 4120
scalar SolutionNetwork.rsu[0].nic.mac1609_4 SentAcknowledgements 0
scalar SolutionNetwork.rsu[0].nic.mac1609_4 RetriesExceeded 0
scalar SolutionNetwork.rsu[0].nic.mac1609_4 SNIRLostPackets 32592
scalar SolutionNetwork.rsu[0].nic.mac1609_4 RXTXLostPackets 42
scalar SolutionNetwork.rsu[0].nic.mac1609_4 TotalLostPackets 32634
scalar SolutionNetwork.rsu[0].nic.mac1609_4 DroppedPacketsInMac 0
scalar SolutionNetwork.rsu[0].nic.mac1609_4 TooLittleTime 0
scalar SolutionNetwork.rsu[0].nic.mac1609_4 TimesIntoBackoff 4229
scalar SolutionNetwork.rsu[0].nic.mac1609_4 SlotsBackoff 8921
scalar SolutionNetwork.rsu[0].nic.mac1609_4 NumInternalContention 0
scalar SolutionNetwork.rsu[0].nic.mac1609_4 totalBusyTime 4.39624
scalar SolutionNetwork.rsu[0].nic.mac1609_4 retriesExceeded:count 0
attr source org_car2x_veins_modules_mac_sigRetriesExceeded
scalar SolutionNetwork.rsu[0].nic.mac1609_4 sentAcks:count 0
attr source org_car2x_veins_modules_mac_sigSentAck
scalar SolutionNetwork.rsu[0].nic.mac1609_4 sentPackets:count 4120
attr source org_car2x_veins_modules_mac_sigSentPacket
scalar SolutionNetwork.rsu[0].nic.mac1609_4 collisions:count 0
attr source org_car2x_veins_modules_mac_sigCollision
scalar SolutionNetwork.rsu[0].nic.mac1609_4 channelBusy:timeavg 0.024423555555554
attr source org_car2x_veins_modules_mac_sigChannelBusy
scalar SolutionNetwork.rsu[0].eth.mac.queue packetPopped:count 17573
attr interpolationmode none
attr title "packet popped, count"
scalar SolutionNetwork.rsu[0].eth.mac.queue packetPopped:sum(packetBytes) 1915457
attr interpolationmode none
attr title "packet popped, sum(packetBytes)"
statistic SolutionNetwork.rsu[0].eth.mac.queue queueingTime:histogram
field count 17573
field mean 3.032816616935e-005
field stddev 2.4977505133508e-005
field min 0
field max 7.782616e-005
field sum 0.53295686409398
field sqrsum 2.7126349237404e-005
attr interpolationmode none
attr source queueingTime(packetPopped)
attr title "queueing times, histogram"
attr unit s
bin	-inf	0
bin	0	4359
bin	1e-006	0
bin	2e-006	0
bin	3e-006	0
bin	4e-006	1
bin	5e-006	1
bin	6e-006	0
bin	7e-006	0
bin	8e-006	0
bin	9e-006	1883
bin	1e-005	0
bin	1.1e-005	1
bin	1.2e-005	0
bin	1.3e-005	0
bin	1.4e-005	0
bin	1.5e-005	0
bin	1.6e-005	0
bin	1.7e-005	1
bin	1.8e-005	0
bin	1.9e-005	1884
bin	2e-005	0
bin	2.1e-005	0
bin	2.2e-005	0
bin	2.3e-005	1
bin	2.4e-005	0
bin	2.5e-005	3
bin	2.6e-005	0
bin	2.7e-005	0
bin	2.8e-005	1
bin	2.9e-005	1883
bin	3e-005	0
bin	3.1e-005	1
bin	3.2e-005	0
bin	3.3e-005	0
bin	3.4e-005	0
bin	3.5e-005	0
bin	3.6e-005	1
bin	3.7e-005	0
bin	3.8e-005	0
bin	3.9e-005	0
bin	4e-005	1885
bin	4.1e-005	0
bin	4.2e-005	0
bin	4.3e-005	0
bin	4.4e-005	1
bin	4.5e-005	0
bin	4.6e-005	0
bin	4.7e-005	1
bin	4.8e-005	1
bin	4.9e-005	0
bin	5e-005	1884
bin	5.1e-005	0
bin	5.2e-005	0
bin	5.3e-005	0
bin	5.4e-005	0
bin	5.5e-005	2
bin	5.6e-005	2
bin	5.7e-005	1
bin	5.8e-005	0
bin	5.9e-005	1
bin	6e-005	1884
bin	6.1e-005	0
bin	6.2e-005	0
bin	6.3e-005	1
bin	6.4e-005	0
bin	6.5e-005	1
bin	6.6e-005	1
bin	6.7e-005	0
bin	6.8e-005	0
bin	6.9e-005	0
bin	7e-005	0
bin	7.1e-005	1884
bin	7.2e-005	0
bin	7.3e-005	0
bin	7.4e-005	2
bin	7.5e-005	1
bin	7.6e-005	0
bin	7.7e-005	1
bin	7.8e-005	0
bin	7.9e-005	0
bin	8e-005	0
bin	8.1e-005	0
bin	8.2e-005	0
bin	8.3e-005	0
bin	8.4e-005	0
bin	8.5e-005	0
bin	8.6e-005	0
bin	8.7e-005	0
bin	8.8e-005	0
bin	8.9e-005	0
bin	9e-005	0
scalar SolutionNetwork.rsu[0].eth.mac.queue queueLength:max 8
attr interpolationmode sample-hold
attr source "count(packetPushed) - count(packetPopped) - count(packetRemoved) - count(packetDropped)"
attr title "queue length, max"
scalar SolutionNetwork.rsu[0].eth.mac.queue queueLength:timeavg 0.002960871467189
attr interpolationmode sample-hold
attr source "count(packetPushed) - count(packetPopped) - count(packetRemoved) - count(packetDropped)"
attr title "queue length, timeavg"
scalar SolutionNetwork.rsu[0].eth.mac.queue packetPushed:count 17573
attr interpolationmode none
attr title "packet pushed, count"
scalar SolutionNetwork.rsu[0].eth.mac.queue packetPushed:sum(packetBytes) 1915457
attr interpolationmode none
attr title "packet pushed, sum(packetBytes)"
scalar SolutionNetwork.rsu[0].eth.mac.queue packetDropQueueOverflow:count 0
attr interpolationmode none
attr source packetDropReasonIsQueueOverflow(packetDropped)
attr title "packet drops: queue overflow, count"
scalar SolutionNetwork.rsu[0].eth.mac.queue packetDropQueueOverflow:sum(packetBytes) 0
attr interpolationmode none
attr source packetDropReasonIsQueueOverflow(packetDropped)
attr title "packet drops: queue overflow, sum(packetBytes)"
scalar SolutionNetwork.rsu[0].eth.mac.queue packetRemoved:count 0
attr interpolationmode none
attr title "packets removed, count"
scalar SolutionNetwork.rsu[0].eth.mac.queue packetRemoved:sum(packetBytes) 0
attr interpolationmode none
attr title "packets removed, sum(packetBytes)"
scalar SolutionNetwork.rsu[0].eth.mac "simulated time" 180
scalar SolutionNetwork.rsu[0].eth.mac full-duplex 1
scalar SolutionNetwork.rsu[0].eth.mac "frames/sec sent" 97.627777777778
scalar SolutionNetwork.rsu[0].eth.mac "frames/sec rcvd" 116.02777777778
scalar SolutionNetwork.rsu[0].eth.mac "bits/sec sent" 85131.422222222
scalar SolutionNetwork.rsu[0].eth.mac "bits/sec rcvd" 101176.22222222
scalar SolutionNetwork.rsu[0].eth.mac "rx channel idle (%)" 99.891398
scalar SolutionNetwork.rsu[0].eth.mac "rx channel utilization (%)" 0.108602
scalar SolutionNetwork.rsu[0].eth.mac "rx channel collision (%)" 0
scalar SolutionNetwork.rsu[0].eth.mac collisions 0
scalar SolutionNetwork.rsu[0].eth.mac backoffs 0
scalar SolutionNetwork.rsu[0].eth.mac txPk:count 17573
attr interpolationmode none
attr source packetSentToLower
attr title "packets transmitted, count"
scalar SolutionNetwork.rsu[0].eth.mac txPk:sum(packetBytes) 1915457
attr interpolationmode none
attr source packetSentToLower
attr title "packets transmitted, sum(packetBytes)"
scalar SolutionNetwork.rsu[0].eth.mac packetReceivedFromUpper:count 17573
attr interpolationmode none
attr source packetReceivedFromUpper
attr title "packet bytes from higher layer, count"
scalar SolutionNetwork.rsu[0].eth.mac packetReceivedFromUpper:sum(packetBytes) 1915457
attr interpolationmode none
attr source packetReceivedFromUpper
attr title "packet bytes from higher layer, sum(packetBytes)"
scalar SolutionNetwork.rsu[0].eth.mac passedUpPk:count 20885
attr interpolationmode none
attr source packetSentToUpper
attr title "packets passed to higher layer, count"
scalar SolutionNetwork.rsu[0].eth.mac passedUpPk:sum(packetBytes) 2276465
attr interpolationmode none
attr source packetSentToUpper
attr title "packets passed to higher layer, sum(packetBytes)"
scalar SolutionNetwork.rsu[0].eth.mac packetDropIncorrectlyReceived:count 0
attr interpolationmode none
attr source packetDropReasonIsIncorrectlyReceived(packetDropped)
attr title "packet drop: incorrectly received, count"
scalar SolutionNetwork.rsu[0].eth.mac packetDropIncorrectlyReceived:sum(packetBytes) 0
attr interpolationmode none
attr source packetDropReasonIsIncorrectlyReceived(packetDropped)
attr title "packet drop: incorrectly received, sum(packetBytes)"
scalar SolutionNetwork.rsu[0].eth.mac packetDropInterfaceDown:count 0
attr interpolationmode none
attr source packetDropReasonIsInterfaceDown(packetDropped)
attr title "packet drop: interface down, count"
scalar SolutionNetwork.rsu[0].eth.mac packetDropInterfaceDown:sum(packetBytes) 0
attr interpolationmode none
attr source packetDropReasonIsInterfaceDown(packetDropped)
attr title "packet drop: interface down, sum(packetBytes)"
scalar SolutionNetwork.rsu[0].eth.mac packetDropNotAddressedToUs:count 0
attr interpolationmode none
attr source packetDropReasonIsNotAddressedToUs(packetDropped)
attr title "packet drop: not addressed to us, count"
scalar SolutionNetwork.rsu[0].eth.mac packetDropNotAddressedToUs:sum(packetBytes) 0
attr interpolationmode none
attr source packetDropReasonIsNotAddressedToUs(packetDropped)
attr title "packet drop: not addressed to us, sum(packetBytes)"
scalar SolutionNetwork.rsu[0].eth.mac backoffSlotsGenerated:count 0
attr interpolationmode none
attr title "backoff, count"
scalar SolutionNetwork.rsu[0].eth.mac collision:count 0
attr interpolationmode none
attr title "collision, count"
scalar SolutionNetwork.rsu[0].eth.mac rxPausePkUnits:count 0
attr interpolationmode none
attr title "pause units received, count"
scalar SolutionNetwork.rsu[0].eth.mac rxPausePkUnits:sum 0
attr interpolationmode none
attr title "pause units received, sum"
scalar SolutionNetwork.rsu[0].eth.mac txPausePkUnits:count 0
attr interpolationmode none
attr title "pause units sent, count"
scalar SolutionNetwork.rsu[0].eth.mac txPausePkUnits:sum 0
attr interpolationmode none
attr title "pause units sent, sum"
scalar SolutionNetwork.rsu[0].eth.mac rxPkOk:count 20885
attr interpolationmode none
attr source rxPkOk
attr title "packets received OK, count"
scalar SolutionNetwork.rsu[0].eth.mac rxPkOk:sum(packetBytes) 2276465
attr interpolationmode none
attr source rxPkOk
attr title "packets received OK, sum(packetBytes)"
scalar SolutionNetwork.rsu[0].eth.encap pauseSent:count 0
attr title "pause sent, count"
scalar SolutionNetwork.rsu[0].eth.encap pauseSent:sum 0
attr title "pause sent, sum"
scalar SolutionNetwork.rsu[0].eth.encap decapPk:count 0
attr interpolationmode none
attr source decapPk
attr title "packets decapsulated, count"
scalar SolutionNetwork.rsu[0].eth.encap decapPk:sum(packetBytes) 0
attr interpolationmode none
attr source decapPk
attr title "packets decapsulated, sum(packetBytes)"
scalar SolutionNetwork.rsu[0].eth.encap encapPk:count 17573
attr interpolationmode none
attr source encapPk
attr title "packets encapsulated, count"
scalar SolutionNetwork.rsu[0].eth.encap encapPk:sum(packetBytes) 1546424
attr interpolationmode none
attr source encapPk
attr title "packets encapsulated, sum(packetBytes)"
scalar SolutionNetwork.rsu[1].appl generatedWSMs 0
scalar SolutionNetwork.rsu[1].appl receivedWSMs 3342
scalar SolutionNetwork.rsu[1].appl generatedBSMs 3204
scalar SolutionNetwork.rsu[1].appl receivedBSMs 0
scalar SolutionNetwork.rsu[1].appl generatedWSAs 0
scalar SolutionNetwork.rsu[1].appl receivedWSAs 0
scalar SolutionNetwork.rsu[1].nic.phy80211p busyTime 0.023070266666657
scalar SolutionNetwork.rsu[1].nic.mac1609_4 ReceivedUnicastPackets 3342
scalar SolutionNetwork.rsu[1].nic.mac1609_4 ReceivedBroadcasts 0
scalar SolutionNetwork.rsu[1].nic.mac1609_4 SentPackets 4662
scalar SolutionNetwork.rsu[1].nic.mac1609_4 SentAcknowledgements 0
scalar SolutionNetwork.rsu[1].nic.mac1609_4 RetriesExceeded 0
scalar SolutionNetwork.rsu[1].nic.mac1609_4 SNIRLostPackets 30668
scalar SolutionNetwork.rsu[1].nic.mac1609_4 RXTXLostPackets 73
scalar SolutionNetwork.rsu[1].nic.mac1609_4 TotalLostPackets 30741
scalar SolutionNetwork.rsu[1].nic.mac1609_4 DroppedPacketsInMac 0
scalar SolutionNetwork.rsu[1].nic.mac1609_4 TooLittleTime 0
scalar SolutionNetwork.rsu[1].nic.mac1609_4 TimesIntoBackoff 4808
scalar SolutionNetwork.rsu[1].nic.mac1609_4 SlotsBackoff 10307
scalar SolutionNetwork.rsu[1].nic.mac1609_4 NumInternalContention 1
scalar SolutionNetwork.rsu[1].nic.mac1609_4 totalBusyTime 4.397294
scalar SolutionNetwork.rsu[1].nic.mac1609_4 retriesExceeded:count 0
attr source org_car2x_veins_modules_mac_sigRetriesExceeded
scalar SolutionNetwork.rsu[1].nic.mac1609_4 sentAcks:count 0
attr source org_car2x_veins_modules_mac_sigSentAck
scalar SolutionNetwork.rsu[1].nic.mac1609_4 sentPackets:count 4662
attr source org_car2x_veins_modules_mac_sigSentPacket
scalar SolutionNetwork.rsu[1].nic.mac1609_4 collisions:count 0
attr source org_car2x_veins_modules_mac_sigCollision
scalar SolutionNetwork.rsu[1].nic.mac1609_4 channelBusy:timeavg 0.024429411111111
attr source org_car2x_veins_modules_mac_sigChannelBusy
scalar SolutionNetwork.rsu[1].eth.mac.queue packetPopped:count 18388
attr interpolationmode none
attr title "packet popped, count"
scalar SolutionNetwork.rsu[1].eth.mac.queue packetPopped:sum(packetBytes) 2004292
attr interpolationmode none
attr title "packet popped, sum(packetBytes)"
statistic SolutionNetwork.rsu[1].eth.mac.queue queueingTime:histogram
field count 18388
field mean 2.9470218572329e-005
field stddev 2.5141911863609e-005
field min 0
field max 8.1460286e-005
field sum 0.54189837910798
field sqrsum 2.7592575643483e-005
attr interpolationmode none
attr source queueingTime(packetPopped)
attr title "queueing times, histogram"
attr unit s
bin	-inf	0
bin	0	4955
bin	1e-006	1
bin	2e-006	0
bin	3e-006	0
bin	4e-006	0
bin	5e-006	0
bin	6e-006	2
bin	7e-006	1
bin	8e-006	0
bin	9e-006	1912
bin	1e-005	0
bin	1.1e-005	1
bin	1.2e-005	0
bin	1.3e-005	0
bin	1.4e-005	0
bin	1.5e-005	1
bin	1.6e-005	0
bin	1.7e-005	1
bin	1.8e-005	3
bin	1.9e-005	1912
bin	2e-005	0
bin	2.1e-005	1
bin	2.2e-005	1
bin	2.3e-005	1
bin	2.4e-005	0
bin	2.5e-005	0
bin	2.6e-005	0
bin	2.7e-005	2
bin	2.8e-005	0
bin	2.9e-005	1912
bin	3e-005	0
bin	3.1e-005	0
bin	3.2e-005	2
bin	3.3e-005	0
bin	3.4e-005	0
bin	3.5e-005	2
bin	3.6e-005	0
bin	3.7e-005	0
bin	3.8e-005	1
bin	3.9e-005	1
bin	4e-005	1912
bin	4.1e-005	1
bin	4.2e-005	2
bin	4.3e-005	0
bin	4.4e-005	0
bin	4.5e-005	0
bin	4.6e-005	1
bin	4.7e-005	0
bin	4.8e-005	1
bin	4.9e-005	1
bin	5e-005	1912
bin	5.1e-005	0
bin	5.2e-005	1
bin	5.3e-005	2
bin	5.4e-005	0
bin	5.5e-005	0
bin	5.6e-005	0
bin	5.7e-005	0
bin	5.8e-005	1
bin	5.9e-005	0
bin	6e-005	1912
bin	6.1e-005	0
bin	6.2e-005	0
bin	6.3e-005	5
bin	6.4e-005	0
bin	6.5e-005	0
bin	6.6e-005	0
bin	6.7e-005	1
bin	6.8e-005	0
bin	6.9e-005	1
bin	7e-005	0
bin	7.1e-005	1912
bin	7.2e-005	0
bin	7.3e-005	3
bin	7.4e-005	1
bin	7.5e-005	0
bin	7.6e-005	2
bin	7.7e-005	0
bin	7.8e-005	0
bin	7.9e-005	2
bin	8e-005	1
bin	8.1e-005	2
bin	8.2e-005	0
bin	8.3e-005	0
bin	8.4e-005	0
bin	8.5e-005	0
bin	8.6e-005	0
bin	8.7e-005	0
bin	8.8e-005	0
bin	8.9e-005	0
bin	9e-005	0
scalar SolutionNetwork.rsu[1].eth.mac.queue queueLength:max 8
attr interpolationmode sample-hold
attr source "count(packetPushed) - count(packetPopped) - count(packetRemoved) - count(packetDropped)"
attr title "queue length, max"
scalar SolutionNetwork.rsu[1].eth.mac.queue queueLength:timeavg 0.0030105465506001
attr interpolationmode sample-hold
attr source "count(packetPushed) - count(packetPopped) - count(packetRemoved) - count(packetDropped)"
attr title "queue length, timeavg"
scalar SolutionNetwork.rsu[1].eth.mac.queue packetPushed:count 18388
attr interpolationmode none
attr title "packet pushed, count"
scalar SolutionNetwork.rsu[1].eth.mac.queue packetPushed:sum(packetBytes) 2004292
attr interpolationmode none
attr title "packet pushed, sum(packetBytes)"
scalar SolutionNetwork.rsu[1].eth.mac.queue packetDropQueueOverflow:count 0
attr interpolationmode none
attr source packetDropReasonIsQueueOverflow(packetDropped)
attr title "packet drops: queue overflow, count"
scalar SolutionNetwork.rsu[1].eth.mac.queue packetDropQueueOverflow:sum(packetBytes) 0
attr interpolationmode none
attr source packetDropReasonIsQueueOverflow(packetDropped)
attr title "packet drops: queue overflow, sum(packetBytes)"
scalar SolutionNetwork.rsu[1].eth.mac.queue packetRemoved:count 0
attr interpolationmode none
attr title "packets removed, count"
scalar SolutionNetwork.rsu[1].eth.mac.queue packetRemoved:sum(packetBytes) 0
attr interpolationmode none
attr title "packets removed, sum(packetBytes)"
scalar SolutionNetwork.rsu[1].eth.mac "simulated time" 180
scalar SolutionNetwork.rsu[1].eth.mac full-duplex 1
scalar SolutionNetwork.rsu[1].eth.mac "frames/sec sent" 102.15555555556
scalar SolutionNetwork.rsu[1].eth.mac "frames/sec rcvd" 115.36111111111
scalar SolutionNetwork.rsu[1].eth.mac "bits/sec sent" 89079.644444444
scalar SolutionNetwork.rsu[1].eth.mac "bits/sec rcvd" 100594.88888889
scalar SolutionNetwork.rsu[1].eth.mac "rx channel idle (%)" 99.892022
scalar SolutionNetwork.rsu[1].eth.mac "rx channel utilization (%)" 0.107978
scalar SolutionNetwork.rsu[1].eth.mac "rx channel collision (%)" 0
scalar SolutionNetwork.rsu[1].eth.mac collisions 0
scalar SolutionNetwork.rsu[1].eth.mac backoffs 0
scalar SolutionNetwork.rsu[1].eth.mac txPk:count 18388
attr interpolationmode none
attr source packetSentToLower
attr title "packets transmitted, count"
scalar SolutionNetwork.rsu[1].eth.mac txPk:sum(packetBytes) 2004292
attr interpolationmode none
attr source packetSentToLower
attr title "packets transmitted, sum(packetBytes)"
scalar SolutionNetwork.rsu[1].eth.mac packetReceivedFromUpper:count 18388
attr interpolationmode none
attr source packetReceivedFromUpper
attr title "packet bytes from higher layer, count"
scalar SolutionNetwork.rsu[1].eth.mac packetReceivedFromUpper:sum(packetBytes) 2004292
attr interpolationmode none
attr source packetReceivedFromUpper
attr title "packet bytes from higher layer, sum(packetBytes)"
scalar SolutionNetwork.rsu[1].eth.mac passedUpPk:count 20765
attr interpolationmode none
attr source packetSentToUpper
attr title "packets passed to higher layer, count"
scalar SolutionNetwork.rsu[1].eth.mac passedUpPk:sum(packetBytes) 2263385
attr interpolationmode none
attr source packetSentToUpper
attr title "packets passed to higher layer, sum(packetBytes)"
scalar SolutionNetwork.rsu[1].eth.mac packetDropIncorrectlyReceived:count 0
attr interpolationmode none
attr source packetDropReasonIsIncorrectlyReceived(packetDropped)
attr title "packet drop: incorrectly received, count"
scalar SolutionNetwork.rsu[1].eth.mac packetDropIncorrectlyReceived:sum(packetBytes) 0
attr interpolationmode none
attr source packetDropReasonIsIncorrectlyReceived(packetDropped)
attr title "packet drop: incorrectly received, sum(packetBytes)"
scalar SolutionNetwork.rsu[1].eth.mac packetDropInterfaceDown:count 0
attr interpolationmode none
attr source packetDropReasonIsInterfaceDown(packetDropped)
attr title "packet drop: interface down, count"
scalar SolutionNetwork.rsu[1].eth.mac packetDropInterfaceDown:sum(packetBytes) 0
attr interpolationmode none
attr source packetDropReasonIsInterfaceDown(packetDropped)
attr title "packet drop: interface down, sum(packetBytes)"
scalar SolutionNetwork.rsu[1].eth.mac packetDropNotAddressedToUs:count 0
attr interpolationmode none
attr source packetDropReasonIsNotAddressedToUs(packetDropped)
attr title "packet drop: not addressed to us, count"
scalar SolutionNetwork.rsu[1].eth.mac packetDropNotAddressedToUs:sum(packetBytes) 0
attr interpolationmode none
attr source packetDropReasonIsNotAddressedToUs(packetDropped)
attr title "packet drop: not addressed to us, sum(packetBytes)"
scalar SolutionNetwork.rsu[1].eth.mac backoffSlotsGenerated:count 0
attr interpolationmode none
attr title "backoff, count"
scalar SolutionNetwork.rsu[1].eth.mac collision:count 0
attr interpolationmode none
attr title "collision, count"
scalar SolutionNetwork.rsu[1].eth.mac rxPausePkUnits:count 0
attr interpolationmode none
attr title "pause units received, count"
scalar SolutionNetwork.rsu[1].eth.mac rxPausePkUnits:sum 0
attr interpolationmode none
attr title "pause units received, sum"
scalar SolutionNetwork.rsu[1].eth.mac txPausePkUnits:count 0
attr interpolationmode none
attr title "pause units sent, count"
scalar SolutionNetwork.rsu[1].eth.mac txPausePkUnits:sum 0
attr interpolationmode none
attr title "pause units sent, sum"
scalar SolutionNetwork.rsu[1].eth.mac rxPkOk:count 20765
attr interpolationmode none
attr source rxPkOk
attr title "packets received OK, count"
scalar SolutionNetwork.rsu[1].eth.mac rxPkOk:sum(packetBytes) 2263385
attr interpolationmode none
attr source rxPkOk
attr title "packets received OK, sum(packetBytes)"
scalar SolutionNetwork.rsu[1].eth.encap pauseSent:count 0
attr title "pause sent, count"
scalar SolutionNetwork.rsu[1].eth.encap pauseSent:sum 0
attr title "pause sent, sum"
scalar SolutionNetwork.rsu[1].eth.encap decapPk:count 0
attr interpolationmode none
attr source decapPk
attr title "packets decapsulated, count"
scalar SolutionNetwork.rsu[1].eth.encap decapPk:sum(packetBytes) 0
attr interpolationmode none
attr source decapPk
attr title "packets decapsulated, sum(packetBytes)"
scalar SolutionNetwork.rsu[1].eth.encap encapPk:count 18388
attr interpolationmode none
attr source encapPk
attr title "packets encapsulated, count"
scalar SolutionNetwork.rsu[1].eth.encap encapPk:sum(packetBytes) 1618144
attr interpolationmode none
attr source encapPk
attr title "packets encapsulated, sum(packetBytes)"
scalar SolutionNetwork.rsu[2].appl generatedWSMs 0
scalar SolutionNetwork.rsu[2].appl receivedWSMs 3418
scalar SolutionNetwork.rsu[2].appl generatedBSMs 3096
scalar SolutionNetwork.rsu[2].appl receivedBSMs 0
scalar SolutionNetwork.rsu[2].appl generatedWSAs 0
scalar SolutionNetwork.rsu[2].appl receivedWSAs 0
scalar SolutionNetwork.rsu[2].nic.phy80211p busyTime 0.023074266666657
scalar SolutionNetwork.rsu[2].nic.mac1609_4 ReceivedUnicastPackets 3418
scalar SolutionNetwork.rsu[2].nic.mac1609_4 ReceivedBroadcasts 0
scalar SolutionNetwork.rsu[2].nic.mac1609_4 SentPackets 4618
scalar SolutionNetwork.rsu[2].nic.mac1609_4 SentAcknowledgements 0
scalar SolutionNetwork.rsu[2].nic.mac1609_4 RetriesExceeded 0
scalar SolutionNetwork.rsu[2].nic.mac1609_4 SNIRLostPackets 30655
scalar SolutionNetwork.rsu[2].nic.mac1609_4 RXTXLostPackets 59
scalar SolutionNetwork.rsu[2].nic.mac1609_4 TotalLostPackets 30714
scalar SolutionNetwork.rsu[2].nic.mac1609_4 DroppedPacketsInMac 0
scalar SolutionNetwork.rsu[2].nic.mac1609_4 TooLittleTime 0
scalar SolutionNetwork.rsu[2].nic.mac1609_4 TimesIntoBackoff 4740
scalar SolutionNetwork.rsu[2].nic.mac1609_4 SlotsBackoff 10259
scalar SolutionNetwork.rsu[2].nic.mac1609_4 NumInternalContention 0
scalar SolutionNetwork.rsu[2].nic.mac1609_4 totalBusyTime 4.398082
scalar SolutionNetwork.rsu[2].nic.mac1609_4 retriesExceeded:count 0
attr source org_car2x_veins_modules_mac_sigRetriesExceeded
scalar SolutionNetwork.rsu[2].nic.mac1609_4 sentAcks:count 0
attr source org_car2x_veins_modules_mac_sigSentAck
scalar SolutionNetwork.rsu[2].nic.mac1609_4 sentPackets:count 4618
attr source org_car2x_veins_modules_mac_sigSentPacket
scalar SolutionNetwork.rsu[2].nic.mac1609_4 collisions:count 0
attr source org_car2x_veins_modules_mac_sigCollision
scalar SolutionNetwork.rsu[2].nic.mac1609_4 channelBusy:timeavg 0.024433788888889
attr source org_car2x_veins_modules_mac_sigChannelBusy
scalar SolutionNetwork.rsu[2].eth.mac.queue packetPopped:count 18780
attr interpolationmode none
attr title "packet popped, count"
scalar SolutionNetwork.rsu[2].eth.mac.queue packetPopped:sum(packetBytes) 2047020
attr interpolationmode none
attr title "packet popped, sum(packetBytes)"
statistic SolutionNetwork.rsu[2].eth.mac.queue queueingTime:histogram
field count 18780
field mean 2.9186812579126e-005
field stddev 2.5191696722019e-005
field min 0
field max 8.0707264e-005
field sum 0.54812834023598
field sqrsum 2.7915677856719e-005
attr interpolationmode none
attr source queueingTime(packetPopped)
attr title "queueing times, histogram"
attr unit s
bin	-inf	0
bin	0	5195
bin	1e-006	0
bin	2e-006	1
bin	3e-006	1
bin	4e-006	0
bin	5e-006	0
bin	6e-006	2
bin	7e-006	1
bin	8e-006	2
bin	9e-006	1929
bin	1e-005	2
bin	1.1e-005	2
bin	1.2e-005	1
bin	1.3e-005	2
bin	1.4e-005	1
bin	1.5e-005	2
bin	1.6e-005	0
bin	1.7e-005	0
bin	1.8e-005	2
bin	1.9e-005	1928
bin	2e-005	2
bin	2.1e-005	1
bin	2.2e-005	0
bin	2.3e-005	0
bin	2.4e-005	0
bin	2.5e-005	0
bin	2.6e-005	0
bin	2.7e-005	0
bin	2.8e-005	0
bin	2.9e-005	1931
bin	3e-005	2
bin	3.1e-005	1
bin	3.2e-005	0
bin	3.3e-005	1
bin	3.4e-005	1
bin	3.5e-005	0
bin	3.6e-005	1
bin	3.7e-005	0
bin	3.8e-005	0
bin	3.9e-005	2
bin	4e-005	1929
bin	4.1e-005	4
bin	4.2e-005	0
bin	4.3e-005	5
bin	4.4e-005	1
bin	4.5e-005	1
bin	4.6e-005	0
bin	4.7e-005	1
bin	4.8e-005	1
bin	4.9e-005	1
bin	5e-005	1928
bin	5.1e-005	4
bin	5.2e-005	1
bin	5.3e-005	0
bin	5.4e-005	0
bin	5.5e-005	1
bin	5.6e-005	1
bin	5.7e-005	0
bin	5.8e-005	1
bin	5.9e-005	0
bin	6e-005	1930
bin	6.1e-005	2
bin	6.2e-005	0
bin	6.3e-005	4
bin	6.4e-005	2
bin	6.5e-005	1
bin	6.6e-005	1
bin	6.7e-005	1
bin	6.8e-005	0
bin	6.9e-005	2
bin	7e-005	3
bin	7.1e-005	1930
bin	7.2e-005	3
bin	7.3e-005	1
bin	7.4e-005	0
bin	7.5e-005	2
bin	7.6e-005	2
bin	7.7e-005	0
bin	7.8e-005	1
bin	7.9e-005	1
bin	8e-005	2
bin	8.1e-005	0
bin	8.2e-005	0
bin	8.3e-005	0
bin	8.4e-005	0
bin	8.5e-005	0
bin	8.6e-005	0
bin	8.7e-005	0
bin	8.8e-005	0
bin	8.9e-005	0
bin	9e-005	0
scalar SolutionNetwork.rsu[2].eth.mac.queue queueLength:max 8
attr interpolationmode sample-hold
attr source "count(packetPushed) - count(packetPopped) - count(packetRemoved) - count(packetDropped)"
attr title "queue length, max"
scalar SolutionNetwork.rsu[2].eth.mac.queue queueLength:timeavg 0.0030451574457557
attr interpolationmode sample-hold
[...]
attr interpolationmode none
attr source packetReceivedFromUpper
attr title "packet bytes from higher layer, count"
scalar SolutionNetwork.switch17.eth[1].mac packetReceivedFromUpper:sum(packetBytes) 3562229
attr interpolationmode none
attr source packetReceivedFromUpper
attr title "packet bytes from higher layer, sum(packetBytes)"
scalar SolutionNetwork.switch17.eth[1].mac passedUpPk:count 29152
attr interpolationmode none
attr source packetSentToUpper
attr title "packets passed to higher layer, count"
scalar SolutionNetwork.switch17.eth[1].mac passedUpPk:sum(packetBytes) 3177568
attr interpolationmode none
attr source packetSentToUpper
attr title "packets passed to higher layer, sum(packetBytes)"
scalar SolutionNetwork.switch17.eth[1].mac packetDropIncorrectlyReceived:count 0
attr interpolationmode none
attr source packetDropReasonIsIncorrectlyReceived(packetDropped)
attr title "packet drop: incorrectly received, count"
scalar SolutionNetwork.switch17.eth[1].mac packetDropIncorrectlyReceived:sum(packetBytes) 0
attr interpolationmode none
attr source packetDropReasonIsIncorrectlyReceived(packetDropped)
attr title "packet drop: incorrectly received, sum(packetBytes)"
scalar SolutionNetwork.switch17.eth[1].mac packetDropInterfaceDown:count 0
attr interpolationmode none
attr source packetDropReasonIsInterfaceDown(packetDropped)
attr title "packet drop: interface down, count"
scalar SolutionNetwork.switch17.eth[1].mac packetDropInterfaceDown:sum(packetBytes) 0
attr interpolationmode none
attr source packetDropReasonIsInterfaceDown(packetDropped)
attr title "packet drop: interface down, sum(packetBytes)"
scalar SolutionNetwork.switch17.eth[1].mac packetDropNotAddressedToUs:count 0
attr interpolationmode none
attr source packetDropReasonIsNotAddressedToUs(packetDropped)
attr title "packet drop: not addressed to us, count"
scalar SolutionNetwork.switch17.eth[1].mac packetDropNotAddressedToUs:sum(packetBytes) 0
attr interpolationmode none
attr source packetDropReasonIsNotAddressedToUs(packetDropped)
attr title "packet drop: not addressed to us, sum(packetBytes)"
scalar SolutionNetwork.switch17.eth[1].mac backoffSlotsGenerated:count 0
attr interpolationmode none
attr title "backoff, count"
scalar SolutionNetwork.switch17.eth[1].mac collision:count 0
attr interpolationmode none
attr title "collision, count"
scalar SolutionNetwork.switch17.eth[1].mac rxPausePkUnits:count 0
attr interpolationmode none
attr title "pause units received, count"
scalar SolutionNetwork.switch17.eth[1].mac rxPausePkUnits:sum 0
attr interpolationmode none
attr title "pause units received, sum"
scalar SolutionNetwork.switch17.eth[1].mac txPausePkUnits:count 0
attr interpolationmode none
attr title "pause units sent, count"
scalar SolutionNetwork.switch17.eth[1].mac txPausePkUnits:sum 0
attr interpolationmode none
attr title "pause units sent, sum"
scalar SolutionNetwork.switch17.eth[1].mac rxPkOk:count 29152
attr interpolationmode none
attr source rxPkOk
attr title "packets received OK, count"
scalar SolutionNetwork.switch17.eth[1].mac rxPkOk:sum(packetBytes) 3177568
attr interpolationmode none
attr source rxPkOk
attr title "packets received OK, sum(packetBytes)"
scalar SolutionNetwork.switch17.encap pauseSent:count 0
attr title "pause sent, count"
scalar SolutionNetwork.switch17.encap pauseSent:sum 0
attr title "pause sent, sum"
scalar SolutionNetwork.switch17.encap decapPk:count 0
attr interpolationmode none
attr source decapPk
attr title "packets decapsulated, count"
scalar SolutionNetwork.switch17.encap decapPk:sum(packetBytes) 0
attr interpolationmode none
attr source decapPk
attr title "packets decapsulated, sum(packetBytes)"
scalar SolutionNetwork.switch17.encap encapPk:count 0
attr interpolationmode none
attr source encapPk
attr title "packets encapsulated, count"
scalar SolutionNetwork.switch17.encap encapPk:sum(packetBytes) 0
attr interpolationmode none
attr source encapPk
attr title "packets encapsulated, sum(packetBytes)"
scalar SolutionNetwork.switch18.relayUnit "number of received BPDUs from STP module" 0
scalar SolutionNetwork.switch18.relayUnit "number of received frames from network (including BPDUs)" 61833
scalar SolutionNetwork.switch18.relayUnit "number of dropped frames (including BPDUs)" 0
scalar SolutionNetwork.switch18.relayUnit "number of delivered BPDUs to the STP module" 0
scalar SolutionNetwork.switch18.relayUnit "number of dispatched BPDU frames to the network" 0
scalar SolutionNetwork.switch18.relayUnit "number of dispatched non-BDPU frames to the network" 61833
scalar SolutionNetwork.switch18.eth[0].mac.queue packetPopped:count 29152
attr interpolationmode none
attr title "packet popped, count"
scalar SolutionNetwork.switch18.eth[0].mac.queue packetPopped:sum(packetBytes) 3177568
attr interpolationmode none
attr title "packet popped, sum(packetBytes)"
statistic SolutionNetwork.switch18.eth[0].mac.queue queueingTime:histogram
field count 29152
field mean 0
field stddev 0
field min 0
field max 0
field sum 0
field sqrsum 0
attr interpolationmode none
attr source queueingTime(packetPopped)
attr title "queueing times, histogram"
attr unit s
bin	-inf	0
bin	-0.5	0
bin	-0.48	0
bin	-0.46	0
bin	-0.44	0
bin	-0.42	0
bin	-0.4	0
bin	-0.38	0
bin	-0.36	0
bin	-0.34	0
bin	-0.32	0
bin	-0.3	0
bin	-0.28	0
bin	-0.26	0
bin	-0.24	0
bin	-0.22	0
bin	-0.2	0
bin	-0.18	0
bin	-0.16	0
bin	-0.14	0
bin	-0.12	0
bin	-0.1	0
bin	-0.08	0
bin	-0.06	0
bin	-0.04	0
bin	-0.02	0
bin	0	29152
bin	0.02	0
bin	0.04	0
bin	0.06	0
bin	0.08	0
bin	0.1	0
bin	0.12	0
bin	0.14	0
bin	0.16	0
bin	0.18	0
bin	0.2	0
bin	0.22	0
bin	0.24	0
bin	0.26	0
bin	0.28	0
bin	0.3	0
bin	0.32	0
bin	0.34	0
bin	0.36	0
bin	0.38	0
bin	0.4	0
bin	0.42	0
bin	0.44	0
bin	0.46	0
bin	0.48	0
bin	0.5	0
scalar SolutionNetwork.switch18.eth[0].mac.queue queueLength:max 1
attr interpolationmode sample-hold
attr source "count(packetPushed) - count(packetPopped) - count(packetRemoved) - count(packetDropped)"
attr title "queue length, max"
scalar SolutionNetwork.switch18.eth[0].mac.queue queueLength:timeavg 0
attr interpolationmode sample-hold
attr source "count(packetPushed) - count(packetPopped) - count(packetRemoved) - count(packetDropped)"
attr title "queue length, timeavg"
scalar SolutionNetwork.switch18.eth[0].mac.queue packetPushed:count 29152
attr interpolationmode none
attr title "packet pushed, count"
scalar SolutionNetwork.switch18.eth[0].mac.queue packetPushed:sum(packetBytes) 3177568
attr interpolationmode none
attr title "packet pushed, sum(packetBytes)"
scalar SolutionNetwork.switch18.eth[0].mac.queue packetDropQueueOverflow:count 0
attr interpolationmode none
attr source packetDropReasonIsQueueOverflow(packetDropped)
attr title "packet drops: queue overflow, count"
scalar SolutionNetwork.switch18.eth[0].mac.queue packetDropQueueOverflow:sum(packetBytes) 0
attr interpolationmode none
attr source packetDropReasonIsQueueOverflow(packetDropped)
attr title "packet drops: queue overflow, sum(packetBytes)"
scalar SolutionNetwork.switch18.eth[0].mac.queue packetRemoved:count 0
attr interpolationmode none
attr title "packets removed, count"
scalar SolutionNetwork.switch18.eth[0].mac.queue packetRemoved:sum(packetBytes) 0
attr interpolationmode none
attr title "packets removed, sum(packetBytes)"
scalar SolutionNetwork.switch18.eth[0].mac "simulated time" 180
scalar SolutionNetwork.switch18.eth[0].mac full-duplex 1
scalar SolutionNetwork.switch18.eth[0].mac "frames/sec sent" 161.95555555556
scalar SolutionNetwork.switch18.eth[0].mac "frames/sec rcvd" 181.56111111111
scalar SolutionNetwork.switch18.eth[0].mac "bits/sec sent" 141225.24444444
scalar SolutionNetwork.switch18.eth[0].mac "bits/sec rcvd" 158321.28888889
scalar SolutionNetwork.switch18.eth[0].mac "rx channel idle (%)" 99.8300588
scalar SolutionNetwork.switch18.eth[0].mac "rx channel utilization (%)" 0.1699412
scalar SolutionNetwork.switch18.eth[0].mac "rx channel collision (%)" 0
scalar SolutionNetwork.switch18.eth[0].mac collisions 0
scalar SolutionNetwork.switch18.eth[0].mac backoffs 0
scalar SolutionNetwork.switch18.eth[0].mac txPk:count 29152
attr interpolationmode none
attr source packetSentToLower
attr title "packets transmitted, count"
scalar SolutionNetwork.switch18.eth[0].mac txPk:sum(packetBytes) 3177568
attr interpolationmode none
attr source packetSentToLower
attr title "packets transmitted, sum(packetBytes)"
scalar SolutionNetwork.switch18.eth[0].mac packetReceivedFromUpper:count 29152
attr interpolationmode none
attr source packetReceivedFromUpper
attr title "packet bytes from higher layer, count"
scalar SolutionNetwork.switch18.eth[0].mac packetReceivedFromUpper:sum(packetBytes) 3177568
attr interpolationmode none
attr source packetReceivedFromUpper
attr title "packet bytes from higher layer, sum(packetBytes)"
scalar SolutionNetwork.switch18.eth[0].mac passedUpPk:count 32681
attr interpolationmode none
attr source packetSentToUpper
attr title "packets passed to higher layer, count"
scalar SolutionNetwork.switch18.eth[0].mac passedUpPk:sum(packetBytes) 3562229
attr interpolationmode none
attr source packetSentToUpper
attr title "packets passed to higher layer, sum(packetBytes)"
scalar SolutionNetwork.switch18.eth[0].mac packetDropIncorrectlyReceived:count 0
attr interpolationmode none
attr source packetDropReasonIsIncorrectlyReceived(packetDropped)
attr title "packet drop: incorrectly received, count"
scalar SolutionNetwork.switch18.eth[0].mac packetDropIncorrectlyReceived:sum(packetBytes) 0
attr interpolationmode none
attr source packetDropReasonIsIncorrectlyReceived(packetDropped)
attr title "packet drop: incorrectly received, sum(packetBytes)"
scalar SolutionNetwork.switch18.eth[0].mac packetDropInterfaceDown:count 0
attr interpolationmode none
attr source packetDropReasonIsInterfaceDown(packetDropped)
attr title "packet drop: interface down, count"
scalar SolutionNetwork.switch18.eth[0].mac packetDropInterfaceDown:sum(packetBytes) 0
attr interpolationmode none
attr source packetDropReasonIsInterfaceDown(packetDropped)
attr title "packet drop: interface down, sum(packetBytes)"
scalar SolutionNetwork.switch18.eth[0].mac packetDropNotAddressedToUs:count 0
attr interpolationmode none
attr source packetDropReasonIsNotAddressedToUs(packetDropped)
attr title "packet drop: not addressed to us, count"
scalar SolutionNetwork.switch18.eth[0].mac packetDropNotAddressedToUs:sum(packetBytes) 0
attr interpolationmode none
attr source packetDropReasonIsNotAddressedToUs(packetDropped)
attr title "packet drop: not addressed to us, sum(packetBytes)"
scalar SolutionNetwork.switch18.eth[0].mac backoffSlotsGenerated:count 0
attr interpolationmode none
attr title "backoff, count"
scalar SolutionNetwork.switch18.eth[0].mac collision:count 0
attr interpolationmode none
attr title "collision, count"
scalar SolutionNetwork.switch18.eth[0].mac rxPausePkUnits:count 0
attr interpolationmode none
attr title "pause units received, count"
scalar SolutionNetwork.switch18.eth[0].mac rxPausePkUnits:sum 0
attr interpolationmode none
attr title "pause units received, sum"
scalar SolutionNetwork.switch18.eth[0].mac txPausePkUnits:count 0
attr interpolationmode none
attr title "pause units sent, count"
scalar SolutionNetwork.switch18.eth[0].mac txPausePkUnits:sum 0
attr interpolationmode none
attr title "pause units sent, sum"
scalar SolutionNetwork.switch18.eth[0].mac rxPkOk:count 32681
attr interpolationmode none
attr source rxPkOk
attr title "packets received OK, count"
scalar SolutionNetwork.switch18.eth[0].mac rxPkOk:sum(packetBytes) 3562229
attr interpolationmode none
attr source rxPkOk
attr title "packets received OK, sum(packetBytes)"
scalar SolutionNetwork.switch18.eth[1].mac.queue packetPopped:count 32681
attr interpolationmode none
attr title "packet popped, count"
scalar SolutionNetwork.switch18.eth[1].mac.queue packetPopped:sum(packetBytes) 3562229
attr interpolationmode none
attr title "packet popped, sum(packetBytes)"
statistic SolutionNetwork.switch18.eth[1].mac.queue queueingTime:histogram
field count 32681
field mean 0
field stddev 0
field min 0
field max 0
field sum 0
field sqrsum 0
attr interpolationmode none
attr source queueingTime(packetPopped)
attr title "queueing times, histogram"
attr unit s
bin	-inf	0
bin	-0.5	0
bin	-0.48	0
bin	-0.46	0
bin	-0.44	0
bin	-0.42	0
bin	-0.4	0
bin	-0.38	0
bin	-0.36	0
bin	-0.34	0
bin	-0.32	0
bin	-0.3	0
bin	-0.28	0
bin	-0.26	0
bin	-0.24	0
bin	-0.22	0
bin	-0.2	0
bin	-0.18	0
bin	-0.16	0
bin	-0.14	0
bin	-0.12	0
bin	-0.1	0
bin	-0.08	0
bin	-0.06	0
bin	-0.04	0
bin	-0.02	0
bin	0	32681
bin	0.02	0
bin	0.04	0
bin	0.06	0
bin	0.08	0
bin	0.1	0
bin	0.12	0
bin	0.14	0
bin	0.16	0
bin	0.18	0
bin	0.2	0
bin	0.22	0
bin	0.24	0
bin	0.26	0
bin	0.28	0
bin	0.3	0
bin	0.32	0
bin	0.34	0
bin	0.36	0
bin	0.38	0
bin	0.4	0
bin	0.42	0
bin	0.44	0
bin	0.46	0
bin	0.48	0
bin	0.5	0
scalar SolutionNetwork.switch18.eth[1].mac.queue queueLength:max 1
attr interpolationmode sample-hold
attr source "count(packetPushed) - count(packetPopped) - count(packetRemoved) - count(packetDropped)"
attr title "queue length, max"
scalar SolutionNetwork.switch18.eth[1].mac.queue queueLength:timeavg 0
attr interpolationmode sample-hold
attr source "count(packetPushed) - count(packetPopped) - count(packetRemoved) - count(packetDropped)"
attr title "queue length, timeavg"
scalar SolutionNetwork.switch18.eth[1].mac.queue packetPushed:count 32681
attr interpolationmode none
attr title "packet pushed, count"
scalar SolutionNetwork.switch18.eth[1].mac.queue packetPushed:sum(packetBytes) 3562229
attr interpolationmode none
attr title "packet pushed, sum(packetBytes)"
scalar SolutionNetwork.switch18.eth[1].mac.queue packetDropQueueOverflow:count 0
attr interpolationmode none
attr source packetDropReasonIsQueueOverflow(packetDropped)
attr title "packet drops: queue overflow, count"
scalar SolutionNetwork.switch18.eth[1].mac.queue packetDropQueueOverflow:sum(packetBytes) 0
attr interpolationmode none
attr source packetDropReasonIsQueueOverflow(packetDropped)
attr title "packet drops: queue overflow, sum(packetBytes)"
scalar SolutionNetwork.switch18.eth[1].mac.queue packetRemoved:count 0
attr interpolationmode none
attr title "packets removed, count"
scalar SolutionNetwork.switch18.eth[1].mac.queue packetRemoved:sum(packetBytes) 0
attr interpolationmode none
attr title "packets removed, sum(packetBytes)"
scalar SolutionNetwork.switch18.eth[1].mac "simulated time" 180
scalar SolutionNetwork.switch18.eth[1].mac full-duplex 1
scalar SolutionNetwork.switch18.eth[1].mac "frames/sec sent" 181.56111111111
scalar SolutionNetwork.switch18.eth[1].mac "frames/sec rcvd" 161.95555555556
scalar SolutionNetwork.switch18.eth[1].mac "bits/sec sent" 158321.28888889
scalar SolutionNetwork.switch18.eth[1].mac "bits/sec rcvd" 141225.24444444
scalar SolutionNetwork.switch18.eth[1].mac "rx channel idle (%)" 99.8484096
scalar SolutionNetwork.switch18.eth[1].mac "rx channel utilization (%)" 0.1515904
scalar SolutionNetwork.switch18.eth[1].mac "rx channel collision (%)" 0
scalar SolutionNetwork.switch18.eth[1].mac collisions 0
scalar SolutionNetwork.switch18.eth[1].mac backoffs 0
scalar SolutionNetwork.switch18.eth[1].mac txPk:count 32681
attr interpolationmode none
attr source packetSentToLower
attr title "packets transmitted, count"
scalar SolutionNetwork.switch18.eth[1].mac txPk:sum(packetBytes) 3562229
attr interpolationmode none
attr source packetSentToLower
attr title "packets transmitted, sum(packetBytes)"
scalar SolutionNetwork.switch18.eth[1].mac packetReceivedFromUpper:count 32681
attr interpolationmode none
attr source packetReceivedFromUpper
attr title "packet bytes from higher layer, count"
scalar SolutionNetwork.switch18.eth[1].mac packetReceivedFromUpper:sum(packetBytes) 3562229
attr interpolationmode none
attr source packetReceivedFromUpper
attr title "packet bytes from higher layer, sum(packetBytes)"
scalar SolutionNetwork.switch18.eth[1].mac passedUpPk:count 29152
attr interpolationmode none
attr source packetSentToUpper
attr title "packets passed to higher layer, count"
scalar SolutionNetwork.switch18.eth[1].mac passedUpPk:sum(packetBytes) 3177568
attr interpolationmode none
attr source packetSentToUpper
attr title "packets passed to higher layer, sum(packetBytes)"
scalar SolutionNetwork.switch18.eth[1].mac packetDropIncorrectlyReceived:count 0
attr interpolationmode none
attr source packetDropReasonIsIncorrectlyReceived(packetDropped)
attr title "packet drop: incorrectly received, count"
scalar SolutionNetwork.switch18.eth[1].mac packetDropIncorrectlyReceived:sum(packetBytes) 0
attr interpolationmode none
attr source packetDropReasonIsIncorrectlyReceived(packetDropped)
attr title "packet drop: incorrectly received, sum(packetBytes)"
scalar SolutionNetwork.switch18.eth[1].mac packetDropInterfaceDown:count 0
attr interpolationmode none
attr source packetDropReasonIsInterfaceDown(packetDropped)
attr title "packet drop: interface down, count"
scalar SolutionNetwork.switch18.eth[1].mac packetDropInterfaceDown:sum(packetBytes) 0
attr interpolationmode none
attr source packetDropReasonIsInterfaceDown(packetDropped)
attr title "packet drop: interface down, sum(packetBytes)"
scalar SolutionNetwork.switch18.eth[1].mac packetDropNotAddressedToUs:count 0
attr interpolationmode none
attr source packetDropReasonIsNotAddressedToUs(packetDropped)
attr title "packet drop: not addressed to us, count"
scalar SolutionNetwork.switch18.eth[1].mac packetDropNotAddressedToUs:sum(packetBytes) 0
attr interpolationmode none
attr source packetDropReasonIsNotAddressedToUs(packetDropped)
attr title "packet drop: not addressed to us, sum(packetBytes)"
scalar SolutionNetwork.switch18.eth[1].mac backoffSlotsGenerated:count 0
attr interpolationmode none
attr title "backoff, count"
scalar SolutionNetwork.switch18.eth[1].mac collision:count 0
attr interpolationmode none
attr title "collision, count"
scalar SolutionNetwork.switch18.eth[1].mac rxPausePkUnits:count 0
attr interpolationmode none
attr title "pause units received, count"
scalar SolutionNetwork.switch18.eth[1].mac rxPausePkUnits:sum 0
attr interpolationmode none
attr title "pause units received, sum"
scalar SolutionNetwork.switch18.eth[1].mac txPausePkUnits:count 0
attr interpolationmode none
attr title "pause units sent, count"
scalar SolutionNetwork.switch18.eth[1].mac txPausePkUnits:sum 0
attr interpolationmode none
attr title "pause units sent, sum"
scalar SolutionNetwork.switch18.eth[1].mac rxPkOk:count 29152
attr interpolationmode none
attr source rxPkOk
attr title "packets received OK, count"
scalar SolutionNetwork.switch18.eth[1].mac rxPkOk:sum(packetBytes) 3177568
attr interpolationmode none
attr source rxPkOk
attr title "packets received OK, sum(packetBytes)"
scalar SolutionNetwork.switch18.encap pauseSent:count 0
attr title "pause sent, count"
scalar SolutionNetwork.switch18.encap pauseSent:sum 0
attr title "pause sent, sum"
scalar SolutionNetwork.switch18.encap decapPk:count 0
attr interpolationmode none
attr source decapPk
attr title "packets decapsulated, count"
scalar SolutionNetwork.switch18.encap decapPk:sum(packetBytes) 0
attr interpolationmode none
attr source decapPk
attr title "packets decapsulated, sum(packetBytes)"
scalar SolutionNetwork.switch18.encap encapPk:count 0
attr interpolationmode none
attr source encapPk
attr title "packets encapsulated, count"
scalar SolutionNetwork.switch18.encap encapPk:sum(packetBytes) 0
attr interpolationmode none
attr source encapPk
attr title "packets encapsulated, sum(packetBytes)"

