file 3078043 1623226820                                         
version 2
run Default-0-20210609-17:19:10-9680
attr configname Default
attr datetime 20210609-17:19:10
attr experiment Default
attr inifile omnetpp.ini
attr iterationvars ""
attr iterationvarsf ""
attr measurement ""
attr network SolutionNetwork
attr processid 9680
attr repetition 0
attr replication #0
attr resultdir results
attr runnumber 0
attr seedset 9680
param *.playgroundSizeX 2600m
param *.playgroundSizeY 2500m
param *.playgroundSizeZ 50m
param *.annotations.draw true
param *.obstacles.debug false
param *.manager.updateInterval 2s
param *.manager.host "\"localhost\""
param *.manager.port 9999
param *.manager.autoShutdown true
param *.manager.launchConfig "xmldoc(\"Solutions.launchd.xml\")"
param *.rsu[0].mobility.x 250
param *.rsu[0].mobility.y 100
param *.rsu[0].mobility.z 0
param *.rsu[1].mobility.x 750
param *.rsu[1].mobility.y 100
param *.rsu[1].mobility.z 0
param *.rsu[2].mobility.x 1250
param *.rsu[2].mobility.y 100
param *.rsu[2].mobility.z 0
param *.rsu[3].mobility.x 1750
param *.rsu[3].mobility.y 100
param *.rsu[3].mobility.z 0
param *.rsu[4].mobility.x 2250
param *.rsu[4].mobility.y 100
param *.rsu[4].mobility.z 0
param *.rsu[*].applType "\"RSUClusterApp\""
param *.rsu[*].appl.headerLength "80 bit"
param *.rsu[*].appl.sendBeacons true
param *.rsu[*].appl.dataOnSch false
param *.rsu[*].appl.beaconInterval 0s
param *.rsu[*].appl.beaconUserPriority 7
param *.rsu[*].appl.dataUserPriority 5
param *.rsu[*].nic.phy80211p.antennaOffsetZ "0 m"
param *.connectionManager.sendDirect true
param *.connectionManager.maxInterfDist 2600m
param *.connectionManager.drawMaxIntfDist false
param *.**.nic.mac1609_4.useServiceChannel false
param *.**.nic.mac1609_4.txPower 50mW
param *.**.nic.mac1609_4.bitrate 12Mbps
param *.**.nic.phy80211p.minPowerLevel -110dBm
param *.**.nic.phy80211p.allowTxDuringRx true
param *.**.nic.phy80211p.useNoiseFloor true
param *.**.nic.phy80211p.noiseFloor -98dBm
param *.**.nic.phy80211p.decider "xmldoc(\"config.xml\")"
param *.**.nic.phy80211p.analogueModels "xmldoc(\"config.xml\")"
param *.**.nic.phy80211p.usePropagationDelay true
param *.**.nic.phy80211p.antenna "xmldoc(\"antenna.xml\", \"/root/Antenna[@id='monopole']\")"
param *.node[*].nic.phy80211p.antennaOffsetY "0 m"
param *.node[*].nic.phy80211p.antennaOffsetZ "1.895 m"
param *.node[*].applType "\"VehicleApp\""
param *.node[*].appl.headerLength "80 bit"
param *.node[*].appl.sendBeacons false
param *.node[*].appl.dataOnSch false
param *.node[*].appl.beaconInterval 1s
param *.node[*].veinsmobility.x 0
param *.node[*].veinsmobility.y 0
param *.node[*].veinsmobility.z 0
param *.node[*].veinsmobility.setHostSpeed false
param *.node[*0].veinsmobility.accidentCount 0
param *.node[*0].veinsmobility.accidentStart 73s
param *.node[*0].veinsmobility.accidentDuration 50s
param *.ES1.srv.ClockFrequency 4

vector 0 SolutionNetwork.rsu[0].eth.encap encapPk:vector(packetBytes) ETV
attr interpolationmode none
attr source encapPk
attr title "packets encapsulated, vector(packetBytes)"
vector 1 SolutionNetwork.rsu[1].eth.encap encapPk:vector(packetBytes) ETV
attr interpolationmode none
attr source encapPk
attr title "packets encapsulated, vector(packetBytes)"
vector 2 SolutionNetwork.rsu[2].eth.encap encapPk:vector(packetBytes) ETV
attr interpolationmode none
attr source encapPk
attr title "packets encapsulated, vector(packetBytes)"
vector 3 SolutionNetwork.rsu[3].eth.encap encapPk:vector(packetBytes) ETV
attr interpolationmode none
attr source encapPk
attr title "packets encapsulated, vector(packetBytes)"
vector 4 SolutionNetwork.rsu[4].eth.encap encapPk:vector(packetBytes) ETV
attr interpolationmode none
attr source encapPk
attr title "packets encapsulated, vector(packetBytes)"
vector 5 SolutionNetwork.rsu[0].eth.mac packetReceivedFromUpper:vector(packetBytes) ETV
attr interpolationmode none
attr source packetReceivedFromUpper
attr title "packet bytes from higher layer, vector(packetBytes)"
vector 6 SolutionNetwork.rsu[0].eth.mac.queue packetPushed:vector(packetBytes) ETV
attr interpolationmode none
attr title "packet pushed, vector(packetBytes)"
vector 7 SolutionNetwork.rsu[0].eth.mac.queue queueLength:vector ETV
attr interpolationmode sample-hold
attr source "count(packetPushed) - count(packetPopped) - count(packetRemoved) - count(packetDropped)"
attr title "queue length, vector"
vector 8 SolutionNetwork.rsu[0].eth.mac.queue packetPopped:vector(packetBytes) ETV
attr interpolationmode none
attr title "packet popped, vector(packetBytes)"
vector 9 SolutionNetwork.rsu[0].eth.mac.queue queueingTime:vector ETV
attr interpolationmode none
attr source queueingTime(packetPopped)
attr title "queueing times, vector"
attr unit s
vector 10 SolutionNetwork.rsu[1].eth.mac packetReceivedFromUpper:vector(packetBytes) ETV
attr interpolationmode none
attr source packetReceivedFromUpper
attr title "packet bytes from higher layer, vector(packetBytes)"
vector 11 SolutionNetwork.rsu[1].eth.mac.queue packetPushed:vector(packetBytes) ETV
attr interpolationmode none
attr title "packet pushed, vector(packetBytes)"
vector 12 SolutionNetwork.rsu[1].eth.mac.queue queueLength:vector ETV
attr interpolationmode sample-hold
attr source "count(packetPushed) - count(packetPopped) - count(packetRemoved) - count(packetDropped)"
attr title "queue length, vector"
vector 13 SolutionNetwork.rsu[1].eth.mac.queue packetPopped:vector(packetBytes) ETV
attr interpolationmode none
attr title "packet popped, vector(packetBytes)"
vector 14 SolutionNetwork.rsu[1].eth.mac.queue queueingTime:vector ETV
attr interpolationmode none
attr source queueingTime(packetPopped)
attr title "queueing times, vector"
attr unit s
vector 15 SolutionNetwork.rsu[2].eth.mac packetReceivedFromUpper:vector(packetBytes) ETV
attr interpolationmode none
attr source packetReceivedFromUpper
attr title "packet bytes from higher layer, vector(packetBytes)"
vector 16 SolutionNetwork.rsu[2].eth.mac.queue packetPushed:vector(packetBytes) ETV
attr interpolationmode none
attr title "packet pushed, vector(packetBytes)"
vector 17 SolutionNetwork.rsu[2].eth.mac.queue queueLength:vector ETV
attr interpolationmode sample-hold
attr source "count(packetPushed) - count(packetPopped) - count(packetRemoved) - count(packetDropped)"
attr title "queue length, vector"
vector 18 SolutionNetwork.rsu[2].eth.mac.queue packetPopped:vector(packetBytes) ETV
attr interpolationmode none
attr title "packet popped, vector(packetBytes)"
vector 19 SolutionNetwork.rsu[2].eth.mac.queue queueingTime:vector ETV
attr interpolationmode none
attr source queueingTime(packetPopped)
attr title "queueing times, vector"
attr unit s
vector 20 SolutionNetwork.rsu[3].eth.mac packetReceivedFromUpper:vector(packetBytes) ETV
attr interpolationmode none
attr source packetReceivedFromUpper
attr title "packet bytes from higher layer, vector(packetBytes)"
vector 21 SolutionNetwork.rsu[3].eth.mac.queue packetPushed:vector(packetBytes) ETV
attr interpolationmode none
attr title "packet pushed, vector(packetBytes)"
vector 22 SolutionNetwork.rsu[3].eth.mac.queue queueLength:vector ETV
attr interpolationmode sample-hold
attr source "count(packetPushed) - count(packetPopped) - count(packetRemoved) - count(packetDropped)"
attr title "queue length, vector"
vector 23 SolutionNetwork.rsu[3].eth.mac.queue packetPopped:vector(packetBytes) ETV
attr interpolationmode none
attr title "packet popped, vector(packetBytes)"
vector 24 SolutionNetwork.rsu[3].eth.mac.queue queueingTime:vector ETV
attr interpolationmode none
attr source queueingTime(packetPopped)
attr title "queueing times, vector"
attr unit s
vector 25 SolutionNetwork.rsu[4].eth.mac packetReceivedFromUpper:vector(packetBytes) ETV
attr interpolationmode none
attr source packetReceivedFromUpper
attr title "packet bytes from higher layer, vector(packetBytes)"
vector 26 SolutionNetwork.rsu[4].eth.mac.queue packetPushed:vector(packetBytes) ETV
attr interpolationmode none
attr title "packet pushed, vector(packetBytes)"
vector 27 SolutionNetwork.rsu[4].eth.mac.queue queueLength:vector ETV
attr interpolationmode sample-hold
attr source "count(packetPushed) - count(packetPopped) - count(packetRemoved) - count(packetDropped)"
attr title "queue length, vector"
vector 28 SolutionNetwork.rsu[4].eth.mac.queue packetPopped:vector(packetBytes) ETV
attr interpolationmode none
attr title "packet popped, vector(packetBytes)"
vector 29 SolutionNetwork.rsu[4].eth.mac.queue queueingTime:vector ETV
attr interpolationmode none
attr source queueingTime(packetPopped)
attr title "queueing times, vector"
attr unit s
vector 30 SolutionNetwork.rsu[0].eth.mac txPk:vector(packetBytes) ETV
attr interpolationmode none
attr source packetSentToLower
attr title "packets transmitted, vector(packetBytes)"
vector 31 SolutionNetwork.rsu[1].eth.mac txPk:vector(packetBytes) ETV
attr interpolationmode none
attr source packetSentToLower
attr title "packets transmitted, vector(packetBytes)"
vector 32 SolutionNetwork.rsu[2].eth.mac txPk:vector(packetBytes) ETV
attr interpolationmode none
attr source packetSentToLower
attr title "packets transmitted, vector(packetBytes)"
vector 33 SolutionNetwork.rsu[3].eth.mac txPk:vector(packetBytes) ETV
attr interpolationmode none
attr source packetSentToLower
attr title "packets transmitted, vector(packetBytes)"
vector 34 SolutionNetwork.rsu[4].eth.mac txPk:vector(packetBytes) ETV
attr interpolationmode none
attr source packetSentToLower
attr title "packets transmitted, vector(packetBytes)"
vector 35 SolutionNetwork.switch1.eth[0].mac rxPkOk:vector(packetBytes) ETV
attr interpolationmode none
attr source rxPkOk
attr title "packets received OK, vector(packetBytes)"
vector 36 SolutionNetwork.switch1.eth[0].mac passedUpPk:vector(packetBytes) ETV
attr interpolationmode none
attr source packetSentToUpper
attr title "packets passed to higher layer, vector(packetBytes)"
vector 37 SolutionNetwork.switch5.eth[0].mac rxPkOk:vector(packetBytes) ETV
attr interpolationmode none
attr source rxPkOk
attr title "packets received OK, vector(packetBytes)"
vector 38 SolutionNetwork.switch5.eth[0].mac passedUpPk:vector(packetBytes) ETV
attr interpolationmode none
attr source packetSentToUpper
attr title "packets passed to higher layer, vector(packetBytes)"
vector 39 SolutionNetwork.switch6.eth[0].mac rxPkOk:vector(packetBytes) ETV
attr interpolationmode none
attr source rxPkOk
attr title "packets received OK, vector(packetBytes)"
vector 40 SolutionNetwork.switch6.eth[0].mac passedUpPk:vector(packetBytes) ETV
attr interpolationmode none
attr source packetSentToUpper
attr title "packets passed to higher layer, vector(packetBytes)"
vector 41 SolutionNetwork.switch10.eth[0].mac rxPkOk:vector(packetBytes) ETV
attr interpolationmode none
attr source rxPkOk
attr title "packets received OK, vector(packetBytes)"
vector 42 SolutionNetwork.switch10.eth[0].mac passedUpPk:vector(packetBytes) ETV
attr interpolationmode none
attr source packetSentToUpper
attr title "packets passed to higher layer, vector(packetBytes)"
vector 43 SolutionNetwork.switch15.eth[3].mac rxPkOk:vector(packetBytes) ETV
attr interpolationmode none
attr source rxPkOk
attr title "packets received OK, vector(packetBytes)"
vector 44 SolutionNetwork.switch15.eth[3].mac passedUpPk:vector(packetBytes) ETV
attr interpolationmode none
attr source packetSentToUpper
attr title "packets passed to higher layer, vector(packetBytes)"
vector 45 SolutionNetwork.switch1.eth[1].mac packetReceivedFromUpper:vector(packetBytes) ETV
attr interpolationmode none
attr source packetReceivedFromUpper
attr title "packet bytes from higher layer, vector(packetBytes)"
vector 46 SolutionNetwork.switch1.eth[1].mac.queue packetPushed:vector(packetBytes) ETV
attr interpolationmode none
attr title "packet pushed, vector(packetBytes)"
vector 47 SolutionNetwork.switch1.eth[1].mac.queue queueLength:vector ETV
attr interpolationmode sample-hold
attr source "count(packetPushed) - count(packetPopped) - count(packetRemoved) - count(packetDropped)"
attr title "queue length, vector"
vector 48 SolutionNetwork.switch1.eth[1].mac.queue packetPopped:vector(packetBytes) ETV
attr interpolationmode none
attr title "packet popped, vector(packetBytes)"
vector 49 SolutionNetwork.switch1.eth[1].mac.queue queueingTime:vector ETV
attr interpolationmode none
attr source queueingTime(packetPopped)
attr title "queueing times, vector"
attr unit s
vector 50 SolutionNetwork.switch1.eth[2].mac packetReceivedFromUpper:vector(packetBytes) ETV
attr interpolationmode none
attr source packetReceivedFromUpper
attr title "packet bytes from higher layer, vector(packetBytes)"
vector 51 SolutionNetwork.switch1.eth[2].mac.queue packetPushed:vector(packetBytes) ETV
attr interpolationmode none
attr title "packet pushed, vector(packetBytes)"
vector 52 SolutionNetwork.switch1.eth[2].mac.queue queueLength:vector ETV
attr interpolationmode sample-hold
attr source "count(packetPushed) - count(packetPopped) - count(packetRemoved) - count(packetDropped)"
attr title "queue length, vector"
vector 53 SolutionNetwork.switch1.eth[2].mac.queue packetPopped:vector(packetBytes) ETV
attr interpolationmode none
attr title "packet popped, vector(packetBytes)"
vector 54 SolutionNetwork.switch1.eth[2].mac.queue queueingTime:vector ETV
attr interpolationmode none
attr source queueingTime(packetPopped)
attr title "queueing times, vector"
attr unit s
vector 55 SolutionNetwork.switch5.eth[1].mac packetReceivedFromUpper:vector(packetBytes) ETV
attr interpolationmode none
attr source packetReceivedFromUpper
attr title "packet bytes from higher layer, vector(packetBytes)"
vector 56 SolutionNetwork.switch5.eth[1].mac.queue packetPushed:vector(packetBytes) ETV
attr interpolationmode none
attr title "packet pushed, vector(packetBytes)"
vector 57 SolutionNetwork.switch5.eth[1].mac.queue queueLength:vector ETV
attr interpolationmode sample-hold
attr source "count(packetPushed) - count(packetPopped) - count(packetRemoved) - count(packetDropped)"
attr title "queue length, vector"
vector 58 SolutionNetwork.switch5.eth[1].mac.queue packetPopped:vector(packetBytes) ETV
attr interpolationmode none
attr title "packet popped, vector(packetBytes)"
vector 59 SolutionNetwork.switch5.eth[1].mac.queue queueingTime:vector ETV
attr interpolationmode none
attr source queueingTime(packetPopped)
attr title "queueing times, vector"
attr unit s
vector 60 SolutionNetwork.switch5.eth[2].mac packetReceivedFromUpper:vector(packetBytes) ETV
attr interpolationmode none
attr source packetReceivedFromUpper
attr title "packet bytes from higher layer, vector(packetBytes)"
vector 61 SolutionNetwork.switch5.eth[2].mac.queue packetPushed:vector(packetBytes) ETV
attr interpolationmode none
attr title "packet pushed, vector(packetBytes)"
vector 62 SolutionNetwork.switch5.eth[2].mac.queue queueLength:vector ETV
attr interpolationmode sample-hold
attr source "count(packetPushed) - count(packetPopped) - count(packetRemoved) - count(packetDropped)"
attr title "queue length, vector"
vector 63 SolutionNetwork.switch5.eth[2].mac.queue packetPopped:vector(packetBytes) ETV
attr interpolationmode none
attr title "packet popped, vector(packetBytes)"
vector 64 SolutionNetwork.switch5.eth[2].mac.queue queueingTime:vector ETV
attr interpolationmode none
attr source queueingTime(packetPopped)
attr title "queueing times, vector"
attr unit s
vector 65 SolutionNetwork.switch6.eth[1].mac packetReceivedFromUpper:vector(packetBytes) ETV
attr interpolationmode none
attr source packetReceivedFromUpper
attr title "packet bytes from higher layer, vector(packetBytes)"
vector 66 SolutionNetwork.switch6.eth[1].mac.queue packetPushed:vector(packetBytes) ETV
attr interpolationmode none
attr title "packet pushed, vector(packetBytes)"
vector 67 SolutionNetwork.switch6.eth[1].mac.queue queueLength:vector ETV
attr interpolationmode sample-hold
attr source "count(packetPushed) - count(packetPopped) - count(packetRemoved) - count(packetDropped)"
attr title "queue length, vector"
vector 68 SolutionNetwork.switch6.eth[1].mac.queue packetPopped:vector(packetBytes) ETV
attr interpolationmode none
attr title "packet popped, vector(packetBytes)"
vector 69 SolutionNetwork.switch6.eth[1].mac.queue queueingTime:vector ETV
attr interpolationmode none
attr source queueingTime(packetPopped)
attr title "queueing times, vector"
attr unit s
vector 70 SolutionNetwork.switch6.eth[2].mac packetReceivedFromUpper:vector(packetBytes) ETV
attr interpolationmode none
attr source packetReceivedFromUpper
attr title "packet bytes from higher layer, vector(packetBytes)"
vector 71 SolutionNetwork.switch6.eth[2].mac.queue packetPushed:vector(packetBytes) ETV
attr interpolationmode none
attr title "packet pushed, vector(packetBytes)"
vector 72 SolutionNetwork.switch6.eth[2].mac.queue queueLength:vector ETV
attr interpolationmode sample-hold
attr source "count(packetPushed) - count(packetPopped) - count(packetRemoved) - count(packetDropped)"
attr title "queue length, vector"
vector 73 SolutionNetwork.switch6.eth[2].mac.queue packetPopped:vector(packetBytes) ETV
attr interpolationmode none
attr title "packet popped, vector(packetBytes)"
vector 74 SolutionNetwork.switch6.eth[2].mac.queue queueingTime:vector ETV
attr interpolationmode none
attr source queueingTime(packetPopped)
attr title "queueing times, vector"
attr unit s
vector 75 SolutionNetwork.switch6.eth[3].mac packetReceivedFromUpper:vector(packetBytes) ETV
attr interpolationmode none
attr source packetReceivedFromUpper
attr title "packet bytes from higher layer, vector(packetBytes)"
vector 76 SolutionNetwork.switch6.eth[3].mac.queue packetPushed:vector(packetBytes) ETV
attr interpolationmode none
attr title "packet pushed, vector(packetBytes)"
vector 77 SolutionNetwork.switch6.eth[3].mac.queue queueLength:vector ETV
attr interpolationmode sample-hold
attr source "count(packetPushed) - count(packetPopped) - count(packetRemoved) - count(packetDropped)"
attr title "queue length, vector"
vector 78 SolutionNetwork.switch6.eth[3].mac.queue packetPopped:vector(packetBytes) ETV
attr interpolationmode none
attr title "packet popped, vector(packetBytes)"
vector 79 SolutionNetwork.switch6.eth[3].mac.queue queueingTime:vector ETV
attr interpolationmode none
attr source queueingTime(packetPopped)
attr title "queueing times, vector"
attr unit s
vector 80 SolutionNetwork.switch10.eth[1].mac packetReceivedFromUpper:vector(packetBytes) ETV
attr interpolationmode none
attr source packetReceivedFromUpper
attr title "packet bytes from higher layer, vector(packetBytes)"
vector 81 SolutionNetwork.switch10.eth[1].mac.queue packetPushed:vector(packetBytes) ETV
attr interpolationmode none
attr title "packet pushed, vector(packetBytes)"
vector 82 SolutionNetwork.switch10.eth[1].mac.queue queueLength:vector ETV
attr interpolationmode sample-hold
attr source "count(packetPushed) - count(packetPopped) - count(packetRemoved) - count(packetDropped)"
attr title "queue length, vector"
vector 83 SolutionNetwork.switch10.eth[1].mac.queue packetPopped:vector(packetBytes) ETV
attr interpolationmode none
attr title "packet popped, vector(packetBytes)"
vector 84 SolutionNetwork.switch10.eth[1].mac.queue queueingTime:vector ETV
attr interpolationmode none
attr source queueingTime(packetPopped)
attr title "queueing times, vector"
attr unit s
vector 85 SolutionNetwork.switch10.eth[2].mac packetReceivedFromUpper:vector(packetBytes) ETV
attr interpolationmode none
attr source packetReceivedFromUpper
attr title "packet bytes from higher layer, vector(packetBytes)"
vector 86 SolutionNetwork.switch10.eth[2].mac.queue packetPushed:vector(packetBytes) ETV
attr interpolationmode none
attr title "packet pushed, vector(packetBytes)"
vector 87 SolutionNetwork.switch10.eth[2].mac.queue queueLength:vector ETV
attr interpolationmode sample-hold
attr source "count(packetPushed) - count(packetPopped) - count(packetRemoved) - count(packetDropped)"
attr title "queue length, vector"
vector 88 SolutionNetwork.switch10.eth[2].mac.queue packetPopped:vector(packetBytes) ETV
attr interpolationmode none
attr title "packet popped, vector(packetBytes)"
vector 89 SolutionNetwork.switch10.eth[2].mac.queue queueingTime:vector ETV
attr interpolationmode none
attr source queueingTime(packetPopped)
attr title "queueing times, vector"
attr unit s
vector 90 SolutionNetwork.switch10.eth[3].mac packetReceivedFromUpper:vector(packetBytes) ETV
attr interpolationmode none
attr source packetReceivedFromUpper
attr title "packet bytes from higher layer, vector(packetBytes)"
vector 91 SolutionNetwork.switch10.eth[3].mac.queue packetPushed:vector(packetBytes) ETV
attr interpolationmode none
attr title "packet pushed, vector(packetBytes)"
vector 92 SolutionNetwork.switch10.eth[3].mac.queue queueLength:vector ETV
attr interpolationmode sample-hold
attr source "count(packetPushed) - count(packetPopped) - count(packetRemoved) - count(packetDropped)"
attr title "queue length, vector"
vector 93 SolutionNetwork.switch10.eth[3].mac.queue packetPopped:vector(packetBytes) ETV
attr interpolationmode none
attr title "packet popped, vector(packetBytes)"
vector 94 SolutionNetwork.switch10.eth[3].mac.queue queueingTime:vector ETV
attr interpolationmode none
attr source queueingTime(packetPopped)
attr title "queueing times, vector"
attr unit s
vector 95 SolutionNetwork.switch10.eth[4].mac packetReceivedFromUpper:vector(packetBytes) ETV
attr interpolationmode none
attr source packetReceivedFromUpper
attr title "packet bytes from higher layer, vector(packetBytes)"
vector 96 SolutionNetwork.switch10.eth[4].mac.queue packetPushed:vector(packetBytes) ETV
attr interpolationmode none
attr title "packet pushed, vector(packetBytes)"
vector 97 SolutionNetwork.switch10.eth[4].mac.queue queueLength:vector ETV
attr interpolationmode sample-hold
attr source "count(packetPushed) - count(packetPopped) - count(packetRemoved) - count(packetDropped)"
attr title "queue length, vector"
vector 98 SolutionNetwork.switch10.eth[4].mac.queue packetPopped:vector(packetBytes) ETV
attr interpolationmode none
attr title "packet popped, vector(packetBytes)"
vector 99 SolutionNetwork.switch10.eth[4].mac.queue queueingTime:vector ETV
attr interpolationmode none
attr source queueingTime(packetPopped)
attr title "queueing times, vector"
attr unit s
vector 100 SolutionNetwork.switch15.eth[0].mac packetReceivedFromUpper:vector(packetBytes) ETV
attr interpolationmode none
attr source packetReceivedFromUpper
attr title "packet bytes from higher layer, vector(packetBytes)"
vector 101 SolutionNetwork.switch15.eth[0].mac.queue packetPushed:vector(packetBytes) ETV
attr interpolationmode none
attr title "packet pushed, vector(packetBytes)"
vector 102 SolutionNetwork.switch15.eth[0].mac.queue queueLength:vector ETV
attr interpolationmode sample-hold
attr source "count(packetPushed) - count(packetPopped) - count(packetRemoved) - count(packetDropped)"
attr title "queue length, vector"
vector 103 SolutionNetwork.switch15.eth[0].mac.queue packetPopped:vector(packetBytes) ETV
attr interpolationmode none
attr title "packet popped, vector(packetBytes)"
vector 104 SolutionNetwork.switch15.eth[0].mac.queue queueingTime:vector ETV
attr interpolationmode none
attr source queueingTime(packetPopped)
attr title "queueing times, vector"
attr unit s
vector 105 SolutionNetwork.switch15.eth[1].mac packetReceivedFromUpper:vector(packetBytes) ETV
attr interpolationmode none
attr source packetReceivedFromUpper
attr title "packet bytes from higher layer, vector(packetBytes)"
vector 106 SolutionNetwork.switch15.eth[1].mac.queue packetPushed:vector(packetBytes) ETV
attr interpolationmode none
attr title "packet pushed, vector(packetBytes)"
vector 107 SolutionNetwork.switch15.eth[1].mac.queue queueLength:vector ETV
attr interpolationmode sample-hold
attr source "count(packetPushed) - count(packetPopped) - count(packetRemoved) - count(packetDropped)"
attr title "queue length, vector"
vector 108 SolutionNetwork.switch15.eth[1].mac.queue packetPopped:vector(packetBytes) ETV
attr interpolationmode none
attr title "packet popped, vector(packetBytes)"
vector 109 SolutionNetwork.switch15.eth[1].mac.queue queueingTime:vector ETV
attr interpolationmode none
attr source queueingTime(packetPopped)
attr title "queueing times, vector"
attr unit s
vector 110 SolutionNetwork.switch15.eth[2].mac packetReceivedFromUpper:vector(packetBytes) ETV
attr interpolationmode none
attr source packetReceivedFromUpper
attr title "packet bytes from higher layer, vector(packetBytes)"
vector 111 SolutionNetwork.switch15.eth[2].mac.queue packetPushed:vector(packetBytes) ETV
attr interpolationmode none
attr title "packet pushed, vector(packetBytes)"
vector 112 SolutionNetwork.switch15.eth[2].mac.queue queueLength:vector ETV
attr interpolationmode sample-hold
attr source "count(packetPushed) - count(packetPopped) - count(packetRemoved) - count(packetDropped)"
attr title "queue length, vector"
vector 113 SolutionNetwork.switch15.eth[2].mac.queue packetPopped:vector(packetBytes) ETV
attr interpolationmode none
attr title "packet popped, vector(packetBytes)"
vector 114 SolutionNetwork.switch15.eth[2].mac.queue queueingTime:vector ETV
attr interpolationmode none
attr source queueingTime(packetPopped)
attr title "queueing times, vector"
attr unit s
vector 115 SolutionNetwork.switch1.eth[1].mac txPk:vector(packetBytes) ETV
attr interpolationmode none
attr source packetSentToLower
attr title "packets transmitted, vector(packetBytes)"
vector 116 SolutionNetwork.switch1.eth[2].mac txPk:vector(packetBytes) ETV
attr interpolationmode none
attr source packetSentToLower
attr title "packets transmitted, vector(packetBytes)"
vector 117 SolutionNetwork.switch5.eth[1].mac txPk:vector(packetBytes) ETV
attr interpolationmode none
attr source packetSentToLower
attr title "packets transmitted, vector(packetBytes)"
vector 118 SolutionNetwork.switch5.eth[2].mac txPk:vector(packetBytes) ETV
attr interpolationmode none
attr source packetSentToLower
attr title "packets transmitted, vector(packetBytes)"
vector 119 SolutionNetwork.switch6.eth[1].mac txPk:vector(packetBytes) ETV
attr interpolationmode none
attr source packetSentToLower
attr title "packets transmitted, vector(packetBytes)"
vector 120 SolutionNetwork.switch6.eth[2].mac txPk:vector(packetBytes) ETV
attr interpolationmode none
attr source packetSentToLower
attr title "packets transmitted, vector(packetBytes)"
vector 121 SolutionNetwork.switch6.eth[3].mac txPk:vector(packetBytes) ETV
attr interpolationmode none
attr source packetSentToLower
attr title "packets transmitted, vector(packetBytes)"
vector 122 SolutionNetwork.switch10.eth[1].mac txPk:vector(packetBytes) ETV
attr interpolationmode none
attr source packetSentToLower
attr title "packets transmitted, vector(packetBytes)"
vector 123 SolutionNetwork.switch10.eth[2].mac txPk:vector(packetBytes) ETV
attr interpolationmode none
attr source packetSentToLower
attr title "packets transmitted, vector(packetBytes)"
vector 124 SolutionNetwork.switch10.eth[3].mac txPk:vector(packetBytes) ETV
attr interpolationmode none
attr source packetSentToLower
attr title "packets transmitted, vector(packetBytes)"
vector 125 SolutionNetwork.switch10.eth[4].mac txPk:vector(packetBytes) ETV
attr interpolationmode none
attr source packetSentToLower
attr title "packets transmitted, vector(packetBytes)"
vector 126 SolutionNetwork.switch15.eth[0].mac txPk:vector(packetBytes) ETV
attr interpolationmode none
attr source packetSentToLower
attr title "packets transmitted, vector(packetBytes)"
vector 127 SolutionNetwork.switch15.eth[1].mac txPk:vector(packetBytes) ETV
attr interpolationmode none
attr source packetSentToLower
attr title "packets transmitted, vector(packetBytes)"
vector 128 SolutionNetwork.switch15.eth[2].mac txPk:vector(packetBytes) ETV
attr interpolationmode none
attr source packetSentToLower
attr title "packets transmitted, vector(packetBytes)"
vector 129 SolutionNetwork.switch2.eth[0].mac rxPkOk:vector(packetBytes) ETV
attr interpolationmode none
attr source rxPkOk
attr title "packets received OK, vector(packetBytes)"
vector 130 SolutionNetwork.switch2.eth[0].mac passedUpPk:vector(packetBytes) ETV
attr interpolationmode none
attr source packetSentToUpper
attr title "packets passed to higher layer, vector(packetBytes)"
vector 131 SolutionNetwork.switch3.eth[0].mac rxPkOk:vector(packetBytes) ETV
attr interpolationmode none
attr source rxPkOk
attr title "packets received OK, vector(packetBytes)"
vector 132 SolutionNetwork.switch3.eth[0].mac passedUpPk:vector(packetBytes) ETV
attr interpolationmode none
attr source packetSentToUpper
attr title "packets passed to higher layer, vector(packetBytes)"
vector 133 SolutionNetwork.switch3.eth[2].mac rxPkOk:vector(packetBytes) ETV
attr interpolationmode none
attr source rxPkOk
attr title "packets received OK, vector(packetBytes)"
vector 134 SolutionNetwork.switch3.eth[2].mac passedUpPk:vector(packetBytes) ETV
attr interpolationmode none
attr source packetSentToUpper
attr title "packets passed to higher layer, vector(packetBytes)"
vector 135 SolutionNetwork.switch6.eth[1].mac rxPkOk:vector(packetBytes) ETV
attr interpolationmode none
attr source rxPkOk
attr title "packets received OK, vector(packetBytes)"
vector 136 SolutionNetwork.switch6.eth[1].mac passedUpPk:vector(packetBytes) ETV
attr interpolationmode none
attr source packetSentToUpper
attr title "packets passed to higher layer, vector(packetBytes)"
vector 137 SolutionNetwork.switch5.eth[2].mac rxPkOk:vector(packetBytes) ETV
attr interpolationmode none
attr source rxPkOk
attr title "packets received OK, vector(packetBytes)"
vector 138 SolutionNetwork.switch5.eth[2].mac passedUpPk:vector(packetBytes) ETV
attr interpolationmode none
attr source packetSentToUpper
attr title "packets passed to higher layer, vector(packetBytes)"
vector 139 SolutionNetwork.switch7.eth[0].mac rxPkOk:vector(packetBytes) ETV
attr interpolationmode none
attr source rxPkOk
attr title "packets received OK, vector(packetBytes)"
vector 140 SolutionNetwork.switch7.eth[0].mac passedUpPk:vector(packetBytes) ETV
attr interpolationmode none
attr source packetSentToUpper
attr title "packets passed to higher layer, vector(packetBytes)"
vector 141 SolutionNetwork.switch8.eth[0].mac rxPkOk:vector(packetBytes) ETV
attr interpolationmode none
attr source rxPkOk
attr title "packets received OK, vector(packetBytes)"
vector 142 SolutionNetwork.switch8.eth[0].mac passedUpPk:vector(packetBytes) ETV
attr interpolationmode none
attr source packetSentToUpper
attr title "packets passed to higher layer, vector(packetBytes)"
vector 143 SolutionNetwork.switch9.eth[1].mac rxPkOk:vector(packetBytes) ETV
attr interpolationmode none
attr source rxPkOk
attr title "packets received OK, vector(packetBytes)"
vector 144 SolutionNetwork.switch9.eth[1].mac passedUpPk:vector(packetBytes) ETV
attr interpolationmode none
attr source packetSentToUpper
attr title "packets passed to higher layer, vector(packetBytes)"
vector 145 SolutionNetwork.switch11.eth[0].mac rxPkOk:vector(packetBytes) ETV
attr interpolationmode none
attr source rxPkOk
attr title "packets received OK, vector(packetBytes)"
vector 146 SolutionNetwork.switch11.eth[0].mac passedUpPk:vector(packetBytes) ETV
attr interpolationmode none
attr source packetSentToUpper
attr title "packets passed to higher layer, vector(packetBytes)"
vector 147 SolutionNetwork.switch12.eth[0].mac rxPkOk:vector(packetBytes) ETV
attr interpolationmode none
attr source rxPkOk
attr title "packets received OK, vector(packetBytes)"
vector 148 SolutionNetwork.switch12.eth[0].mac passedUpPk:vector(packetBytes) ETV
attr interpolationmode none
attr source packetSentToUpper
attr title "packets passed to higher layer, vector(packetBytes)"
vector 149 SolutionNetwork.switch15.eth[0].mac rxPkOk:vector(packetBytes) ETV
attr interpolationmode none
attr source rxPkOk
attr title "packets received OK, vector(packetBytes)"
vector 150 SolutionNetwork.switch15.eth[0].mac passedUpPk:vector(packetBytes) ETV
attr interpolationmode none
attr source packetSentToUpper
attr title "packets passed to higher layer, vector(packetBytes)"
vector 151 SolutionNetwork.switch10.eth[4].mac rxPkOk:vector(packetBytes) ETV
attr interpolationmode none
attr source rxPkOk
attr title "packets received OK, vector(packetBytes)"
vector 152 SolutionNetwork.switch10.eth[4].mac passedUpPk:vector(packetBytes) ETV
attr interpolationmode none
attr source packetSentToUpper
attr title "packets passed to higher layer, vector(packetBytes)"
vector 153 SolutionNetwork.switch16.eth[0].mac rxPkOk:vector(packetBytes) ETV
attr interpolationmode none
attr source rxPkOk
attr title "packets received OK, vector(packetBytes)"
vector 154 SolutionNetwork.switch16.eth[0].mac passedUpPk:vector(packetBytes) ETV
attr interpolationmode none
attr source packetSentToUpper
attr title "packets passed to higher layer, vector(packetBytes)"
vector 155 SolutionNetwork.ES7.eth.mac rxPkOk:vector(packetBytes) ETV
attr interpolationmode none
attr source rxPkOk
attr title "packets received OK, vector(packetBytes)"
vector 156 SolutionNetwork.ES7.eth.mac passedUpPk:vector(packetBytes) ETV
attr interpolationmode none
attr source packetSentToUpper
attr title "packets passed to higher layer, vector(packetBytes)"
vector 157 SolutionNetwork.switch2.eth[1].mac packetReceivedFromUpper:vector(packetBytes) ETV
attr interpolationmode none
attr source packetReceivedFromUpper
attr title "packet bytes from higher layer, vector(packetBytes)"
vector 158 SolutionNetwork.switch2.eth[1].mac.queue packetPushed:vector(packetBytes) ETV
attr interpolationmode none
attr title "packet pushed, vector(packetBytes)"
vector 159 SolutionNetwork.switch2.eth[1].mac.queue queueLength:vector ETV
attr interpolationmode sample-hold
attr source "count(packetPushed) - count(packetPopped) - count(packetRemoved) - count(packetDropped)"
attr title "queue length, vector"
vector 160 SolutionNetwork.switch2.eth[1].mac.queue packetPopped:vector(packetBytes) ETV
attr interpolationmode none
attr title "packet popped, vector(packetBytes)"
vector 161 SolutionNetwork.switch2.eth[1].mac.queue queueingTime:vector ETV
attr interpolationmode none
attr source queueingTime(packetPopped)
attr title "queueing times, vector"
attr unit s
vector 162 SolutionNetwork.switch3.eth[1].mac packetReceivedFromUpper:vector(packetBytes) ETV
attr interpolationmode none
attr source packetReceivedFromUpper
attr title "packet bytes from higher layer, vector(packetBytes)"
vector 163 SolutionNetwork.switch3.eth[1].mac.queue packetPushed:vector(packetBytes) ETV
attr interpolationmode none
attr title "packet pushed, vector(packetBytes)"
vector 164 SolutionNetwork.switch3.eth[1].mac.queue queueLength:vector ETV
attr interpolationmode sample-hold
attr source "count(packetPushed) - count(packetPopped) - count(packetRemoved) - count(packetDropped)"
attr title "queue length, vector"
vector 165 SolutionNetwork.switch3.eth[1].mac.queue packetPopped:vector(packetBytes) ETV
attr interpolationmode none
attr title "packet popped, vector(packetBytes)"
vector 166 SolutionNetwork.switch3.eth[1].mac.queue queueingTime:vector ETV
attr interpolationmode none
attr source queueingTime(packetPopped)
attr title "queueing times, vector"
attr unit s
vector 167 SolutionNetwork.switch3.eth[2].mac packetReceivedFromUpper:vector(packetBytes) ETV
attr interpolationmode none
attr source packetReceivedFromUpper
attr title "packet bytes from higher layer, vector(packetBytes)"
vector 168 SolutionNetwork.switch3.eth[2].mac.queue packetPushed:vector(packetBytes) ETV
attr interpolationmode none
attr title "packet pushed, vector(packetBytes)"
vector 169 SolutionNetwork.switch3.eth[2].mac.queue queueLength:vector ETV
attr interpolationmode sample-hold
attr source "count(packetPushed) - count(packetPopped) - count(packetRemoved) - count(packetDropped)"
attr title "queue length, vector"
vector 170 SolutionNetwork.switch3.eth[2].mac.queue packetPopped:vector(packetBytes) ETV
attr interpolationmode none
attr title "packet popped, vector(packetBytes)"
vector 171 SolutionNetwork.switch3.eth[2].mac.queue queueingTime:vector ETV
attr interpolationmode none
attr source queueingTime(packetPopped)
attr title "queueing times, vector"
attr unit s
vector 172 SolutionNetwork.switch3.eth[0].mac packetReceivedFromUpper:vector(packetBytes) ETV
attr interpolationmode none
attr source packetReceivedFromUpper
attr title "packet bytes from higher layer, vector(packetBytes)"
vector 173 SolutionNetwork.switch3.eth[0].mac.queue packetPushed:vector(packetBytes) ETV
attr interpolationmode none
attr title "packet pushed, vector(packetBytes)"
vector 174 SolutionNetwork.switch3.eth[0].mac.queue queueLength:vector ETV
attr interpolationmode sample-hold
attr source "count(packetPushed) - count(packetPopped) - count(packetRemoved) - count(packetDropped)"
attr title "queue length, vector"
vector 175 SolutionNetwork.switch3.eth[0].mac.queue packetPopped:vector(packetBytes) ETV
attr interpolationmode none
attr title "packet popped, vector(packetBytes)"
vector 176 SolutionNetwork.switch3.eth[0].mac.queue queueingTime:vector ETV
attr interpolationmode none
attr source queueingTime(packetPopped)
attr title "queueing times, vector"
attr unit s
vector 177 SolutionNetwork.switch6.eth[0].mac packetReceivedFromUpper:vector(packetBytes) ETV
attr interpolationmode none
attr source packetReceivedFromUpper
attr title "packet bytes from higher layer, vector(packetBytes)"
vector 178 SolutionNetwork.switch6.eth[0].mac.queue packetPushed:vector(packetBytes) ETV
attr interpolationmode none
attr title "packet pushed, vector(packetBytes)"
vector 179 SolutionNetwork.switch6.eth[0].mac.queue queueLength:vector ETV
attr interpolationmode sample-hold
attr source "count(packetPushed) - count(packetPopped) - count(packetRemoved) - count(packetDropped)"
attr title "queue length, vector"
vector 180 SolutionNetwork.switch6.eth[0].mac.queue packetPopped:vector(packetBytes) ETV
attr interpolationmode none
attr title "packet popped, vector(packetBytes)"
vector 181 SolutionNetwork.switch6.eth[0].mac.queue queueingTime:vector ETV
attr interpolationmode none
attr source queueingTime(packetPopped)
attr title "queueing times, vector"
attr unit s
vector 182 SolutionNetwork.switch5.eth[0].mac packetReceivedFromUpper:vector(packetBytes) ETV
attr interpolationmode none
attr source packetReceivedFromUpper
attr title "packet bytes from higher layer, vector(packetBytes)"
vector 183 SolutionNetwork.switch5.eth[0].mac.queue packetPushed:vector(packetBytes) ETV
attr interpolationmode none
attr title "packet pushed, vector(packetBytes)"
vector 184 SolutionNetwork.switch5.eth[0].mac.queue queueLength:vector ETV
attr interpolationmode sample-hold
attr source "count(packetPushed) - count(packetPopped) - count(packetRemoved) - count(packetDropped)"
attr title "queue length, vector"
vector 185 SolutionNetwork.switch5.eth[0].mac.queue packetPopped:vector(packetBytes) ETV
attr interpolationmode none
attr title "packet popped, vector(packetBytes)"
vector 186 SolutionNetwork.switch5.eth[0].mac.queue queueingTime:vector ETV
attr interpolationmode none
attr source queueingTime(packetPopped)
attr title "queueing times, vector"
attr unit s
vector 187 SolutionNetwork.switch7.eth[1].mac packetReceivedFromUpper:vector(packetBytes) ETV
attr interpolationmode none
attr source packetReceivedFromUpper
attr title "packet bytes from higher layer, vector(packetBytes)"
vector 188 SolutionNetwork.switch7.eth[1].mac.queue packetPushed:vector(packetBytes) ETV
attr interpolationmode none
attr title "packet pushed, vector(packetBytes)"
vector 189 SolutionNetwork.switch7.eth[1].mac.queue queueLength:vector ETV
attr interpolationmode sample-hold
attr source "count(packetPushed) - count(packetPopped) - count(packetRemoved) - count(packetDropped)"
attr title "queue length, vector"
vector 190 SolutionNetwork.switch7.eth[1].mac.queue packetPopped:vector(packetBytes) ETV
attr interpolationmode none
attr title "packet popped, vector(packetBytes)"
vector 191 SolutionNetwork.switch7.eth[1].mac.queue queueingTime:vector ETV
attr interpolationmode none
attr source queueingTime(packetPopped)
attr title "queueing times, vector"
attr unit s
vector 192 SolutionNetwork.switch8.eth[1].mac packetReceivedFromUpper:vector(packetBytes) ETV
attr interpolationmode none
attr source packetReceivedFromUpper
attr title "packet bytes from higher layer, vector(packetBytes)"
vector 193 SolutionNetwork.switch8.eth[1].mac.queue packetPushed:vector(packetBytes) ETV
attr interpolationmode none
attr title "packet pushed, vector(packetBytes)"
vector 194 SolutionNetwork.switch8.eth[1].mac.queue queueLength:vector ETV
attr interpolationmode sample-hold
attr source "count(packetPushed) - count(packetPopped) - count(packetRemoved) - count(packetDropped)"
attr title "queue length, vector"
vector 195 SolutionNetwork.switch8.eth[1].mac.queue packetPopped:vector(packetBytes) ETV
attr interpolationmode none
attr title "packet popped, vector(packetBytes)"
vector 196 SolutionNetwork.switch8.eth[1].mac.queue queueingTime:vector ETV
attr interpolationmode none
attr source queueingTime(packetPopped)
attr title "queueing times, vector"
attr unit s
vector 197 SolutionNetwork.switch9.eth[0].mac packetReceivedFromUpper:vector(packetBytes) ETV
attr interpolationmode none
attr source packetReceivedFromUpper
attr title "packet bytes from higher layer, vector(packetBytes)"
vector 198 SolutionNetwork.switch9.eth[0].mac.queue packetPushed:vector(packetBytes) ETV
attr interpolationmode none
attr title "packet pushed, vector(packetBytes)"
vector 199 SolutionNetwork.switch9.eth[0].mac.queue queueLength:vector ETV
attr interpolationmode sample-hold
attr source "count(packetPushed) - count(packetPopped) - count(packetRemoved) - count(packetDropped)"
attr title "queue length, vector"
vector 200 SolutionNetwork.switch9.eth[0].mac.queue packetPopped:vector(packetBytes) ETV
attr interpolationmode none
attr title "packet popped, vector(packetBytes)"
vector 201 SolutionNetwork.switch9.eth[0].mac.queue queueingTime:vector ETV
attr interpolationmode none
attr source queueingTime(packetPopped)
attr title "queueing times, vector"
attr unit s
vector 202 SolutionNetwork.switch11.eth[1].mac packetReceivedFromUpper:vector(packetBytes) ETV
attr interpolationmode none
attr source packetReceivedFromUpper
attr title "packet bytes from higher layer, vector(packetBytes)"
vector 203 SolutionNetwork.switch11.eth[1].mac.queue packetPushed:vector(packetBytes) ETV
attr interpolationmode none
attr title "packet pushed, vector(packetBytes)"
vector 204 SolutionNetwork.switch11.eth[1].mac.queue queueLength:vector ETV
attr interpolationmode sample-hold
attr source "count(packetPushed) - count(packetPopped) - count(packetRemoved) - count(packetDropped)"
attr title "queue length, vector"
vector 205 SolutionNetwork.switch11.eth[1].mac.queue packetPopped:vector(packetBytes) ETV
attr interpolationmode none
attr title "packet popped, vector(packetBytes)"
vector 206 SolutionNetwork.switch11.eth[1].mac.queue queueingTime:vector ETV
attr interpolationmode none
attr source queueingTime(packetPopped)
attr title "queueing times, vector"
attr unit s
vector 207 SolutionNetwork.switch12.eth[1].mac packetReceivedFromUpper:vector(packetBytes) ETV
attr interpolationmode none
attr source packetReceivedFromUpper
attr title "packet bytes from higher layer, vector(packetBytes)"
vector 208 SolutionNetwork.switch12.eth[1].mac.queue packetPushed:vector(packetBytes) ETV
attr interpolationmode none
attr title "packet pushed, vector(packetBytes)"
vector 209 SolutionNetwork.switch12.eth[1].mac.queue queueLength:vector ETV
attr interpolationmode sample-hold
attr source "count(packetPushed) - count(packetPopped) - count(packetRemoved) - count(packetDropped)"
attr title "queue length, vector"
vector 210 SolutionNetwork.switch12.eth[1].mac.queue packetPopped:vector(packetBytes) ETV
attr interpolationmode none
attr title "packet popped, vector(packetBytes)"
vector 211 SolutionNetwork.switch12.eth[1].mac.queue queueingTime:vector ETV
attr interpolationmode none
attr source queueingTime(packetPopped)
attr title "queueing times, vector"
attr unit s
vector 212 SolutionNetwork.switch15.eth[3].mac packetReceivedFromUpper:vector(packetBytes) ETV
attr interpolationmode none
attr source packetReceivedFromUpper
attr title "packet bytes from higher layer, vector(packetBytes)"
vector 213 SolutionNetwork.switch15.eth[3].mac.queue packetPushed:vector(packetBytes) ETV
attr interpolationmode none
attr title "packet pushed, vector(packetBytes)"
vector 214 SolutionNetwork.switch15.eth[3].mac.queue queueLength:vector ETV
attr interpolationmode sample-hold
attr source "count(packetPushed) - count(packetPopped) - count(packetRemoved) - count(packetDropped)"
attr title "queue length, vector"
vector 215 SolutionNetwork.switch15.eth[3].mac.queue packetPopped:vector(packetBytes) ETV
attr interpolationmode none
attr title "packet popped, vector(packetBytes)"
vector 216 SolutionNetwork.switch15.eth[3].mac.queue queueingTime:vector ETV
attr interpolationmode none
attr source queueingTime(packetPopped)
attr title "queueing times, vector"
attr unit s
vector 217 SolutionNetwork.switch10.eth[0].mac packetReceivedFromUpper:vector(packetBytes) ETV
attr interpolationmode none
attr source packetReceivedFromUpper
attr title "packet bytes from higher layer, vector(packetBytes)"
vector 218 SolutionNetwork.switch10.eth[0].mac.queue packetPushed:vector(packetBytes) ETV
attr interpolationmode none
attr title "packet pushed, vector(packetBytes)"
vector 219 SolutionNetwork.switch10.eth[0].mac.queue queueLength:vector ETV
attr interpolationmode sample-hold
attr source "count(packetPushed) - count(packetPopped) - count(packetRemoved) - count(packetDropped)"
attr title "queue length, vector"
vector 220 SolutionNetwork.switch10.eth[0].mac.queue packetPopped:vector(packetBytes) ETV
attr interpolationmode none
attr title "packet popped, vector(packetBytes)"
vector 221 SolutionNetwork.switch10.eth[0].mac.queue queueingTime:vector ETV
attr interpolationmode none
attr source queueingTime(packetPopped)
attr title "queueing times, vector"
attr unit s
vector 222 SolutionNetwork.switch16.eth[1].mac packetReceivedFromUpper:vector(packetBytes) ETV
attr interpolationmode none
attr source packetReceivedFromUpper
attr title "packet bytes from higher layer, vector(packetBytes)"
vector 223 SolutionNetwork.switch16.eth[1].mac.queue packetPushed:vector(packetBytes) ETV
attr interpolationmode none
attr title "packet pushed, vector(packetBytes)"
vector 224 SolutionNetwork.switch16.eth[1].mac.queue queueLength:vector ETV
attr interpolationmode sample-hold
attr source "count(packetPushed) - count(packetPopped) - count(packetRemoved) - count(packetDropped)"
attr title "queue length, vector"
vector 225 SolutionNetwork.switch16.eth[1].mac.queue packetPopped:vector(packetBytes) ETV
attr interpolationmode none
attr title "packet popped, vector(packetBytes)"
vector 226 SolutionNetwork.switch16.eth[1].mac.queue queueingTime:vector ETV
attr interpolationmode none
attr source queueingTime(packetPopped)
attr title "queueing times, vector"
attr unit s
vector 227 SolutionNetwork.ES7.srv packetReceived:vector(packetBytes) ETV
attr interpolationmode none
attr source packetReceived
attr title "packets received, vector(packetBytes)"
vector 228 SolutionNetwork.ES7.srv packetSent:vector(packetBytes) ETV
attr interpolationmode none
attr source packetSent
attr title "packets sent, vector(packetBytes)"
vector 229 SolutionNetwork.ES7.llc encapPk:vector(packetBytes) ETV
attr interpolationmode none
attr source encapPk
attr title "packets encapsulated, vector(packetBytes)"
vector 230 SolutionNetwork.ES7.eth.mac packetReceivedFromUpper:vector(packetBytes) ETV
attr interpolationmode none
attr source packetReceivedFromUpper
attr title "packet bytes from higher layer, vector(packetBytes)"
vector 231 SolutionNetwork.ES7.eth.mac.queue packetPushed:vector(packetBytes) ETV
attr interpolationmode none
attr title "packet pushed, vector(packetBytes)"
vector 232 SolutionNetwork.ES7.eth.mac.queue queueLength:vector ETV
attr interpolationmode sample-hold
attr source "count(packetPushed) - count(packetPopped) - count(packetRemoved) - count(packetDropped)"
attr title "queue length, vector"
vector 233 SolutionNetwork.ES7.eth.mac.queue packetPopped:vector(packetBytes) ETV
attr interpolationmode none
attr title "packet popped, vector(packetBytes)"
vector 234 SolutionNetwork.ES7.eth.mac.queue queueingTime:vector ETV
attr interpolationmode none
attr source queueingTime(packetPopped)
attr title "queueing times, vector"
attr unit s
vector 235 SolutionNetwork.switch2.eth[1].mac txPk:vector(packetBytes) ETV
attr interpolationmode none
attr source packetSentToLower
attr title "packets transmitted, vector(packetBytes)"
vector 236 SolutionNetwork.switch3.eth[1].mac txPk:vector(packetBytes) ETV
attr interpolationmode none
attr source packetSentToLower
attr title "packets transmitted, vector(packetBytes)"
vector 237 SolutionNetwork.switch6.eth[0].mac txPk:vector(packetBytes) ETV
attr interpolationmode none
attr source packetSentToLower
attr title "packets transmitted, vector(packetBytes)"
vector 238 SolutionNetwork.switch5.eth[0].mac txPk:vector(packetBytes) ETV
attr interpolationmode none
attr source packetSentToLower
attr title "packets transmitted, vector(packetBytes)"
vector 239 SolutionNetwork.switch7.eth[1].mac txPk:vector(packetBytes) ETV
attr interpolationmode none
attr source packetSentToLower
attr title "packets transmitted, vector(packetBytes)"
vector 240 SolutionNetwork.switch8.eth[1].mac txPk:vector(packetBytes) ETV
attr interpolationmode none
attr source packetSentToLower
attr title "packets transmitted, vector(packetBytes)"
vector 241 SolutionNetwork.switch9.eth[0].mac txPk:vector(packetBytes) ETV
attr interpolationmode none
attr source packetSentToLower
attr title "packets transmitted, vector(packetBytes)"
vector 242 SolutionNetwork.switch11.eth[1].mac txPk:vector(packetBytes) ETV
attr interpolationmode none
attr source packetSentToLower
attr title "packets transmitted, vector(packetBytes)"
vector 243 SolutionNetwork.switch12.eth[1].mac txPk:vector(packetBytes) ETV
attr interpolationmode none
attr source packetSentToLower
attr title "packets transmitted, vector(packetBytes)"
vector 244 SolutionNetwork.switch15.eth[3].mac txPk:vector(packetBytes) ETV
attr interpolationmode none
attr source packetSentToLower
attr title "packets transmitted, vector(packetBytes)"
vector 245 SolutionNetwork.switch10.eth[0].mac txPk:vector(packetBytes) ETV
attr interpolationmode none
attr source packetSentToLower
attr title "packets transmitted, vector(packetBytes)"
vector 246 SolutionNetwork.switch16.eth[1].mac txPk:vector(packetBytes) ETV
attr interpolationmode none
attr source packetSentToLower
attr title "packets transmitted, vector(packetBytes)"
vector 247 SolutionNetwork.ES0.eth.mac rxPkOk:vector(packetBytes) ETV
attr interpolationmode none
attr source rxPkOk
attr title "packets received OK, vector(packetBytes)"
vector 248 SolutionNetwork.ES0.eth.mac passedUpPk:vector(packetBytes) ETV
attr interpolationmode none
attr source packetSentToUpper
attr title "packets passed to higher layer, vector(packetBytes)"
vector 249 SolutionNetwork.switch4.eth[0].mac rxPkOk:vector(packetBytes) ETV
attr interpolationmode none
attr source rxPkOk
attr title "packets received OK, vector(packetBytes)"
vector 250 SolutionNetwork.switch4.eth[0].mac passedUpPk:vector(packetBytes) ETV
attr interpolationmode none
attr source packetSentToUpper
attr title "packets passed to higher layer, vector(packetBytes)"
vector 251 SolutionNetwork.rsu[2].eth.mac rxPkOk:vector(packetBytes) ETV
attr interpolationmode none
attr source rxPkOk
attr title "packets received OK, vector(packetBytes)"
vector 252 SolutionNetwork.rsu[2].eth.mac passedUpPk:vector(packetBytes) ETV
attr interpolationmode none
attr source packetSentToUpper
attr title "packets passed to higher layer, vector(packetBytes)"
vector 253 SolutionNetwork.rsu[1].eth.mac rxPkOk:vector(packetBytes) ETV
attr interpolationmode none
attr source rxPkOk
attr title "packets received OK, vector(packetBytes)"
vector 254 SolutionNetwork.rsu[1].eth.mac passedUpPk:vector(packetBytes) ETV
attr interpolationmode none
attr source packetSentToUpper
attr title "packets passed to higher layer, vector(packetBytes)"
vector 255 SolutionNetwork.ES2.eth.mac rxPkOk:vector(packetBytes) ETV
attr interpolationmode none
attr source rxPkOk
attr title "packets received OK, vector(packetBytes)"
vector 256 SolutionNetwork.ES2.eth.mac passedUpPk:vector(packetBytes) ETV
attr interpolationmode none
attr source packetSentToUpper
attr title "packets passed to higher layer, vector(packetBytes)"
vector 257 SolutionNetwork.switch9.eth[0].mac rxPkOk:vector(packetBytes) ETV
attr interpolationmode none
attr source rxPkOk
attr title "packets received OK, vector(packetBytes)"
vector 258 SolutionNetwork.switch9.eth[0].mac passedUpPk:vector(packetBytes) ETV
attr interpolationmode none
attr source packetSentToUpper
attr title "packets passed to higher layer, vector(packetBytes)"
vector 259 SolutionNetwork.switch8.eth[1].mac rxPkOk:vector(packetBytes) ETV
attr interpolationmode none
attr source rxPkOk
attr title "packets received OK, vector(packetBytes)"
vector 260 SolutionNetwork.switch8.eth[1].mac passedUpPk:vector(packetBytes) ETV
attr interpolationmode none
attr source packetSentToUpper
attr title "packets passed to higher layer, vector(packetBytes)"
vector 261 SolutionNetwork.ES3.eth.mac rxPkOk:vector(packetBytes) ETV
attr interpolationmode none
attr source rxPkOk
attr title "packets received OK, vector(packetBytes)"
vector 262 SolutionNetwork.ES3.eth.mac passedUpPk:vector(packetBytes) ETV
attr interpolationmode none
attr source packetSentToUpper
attr title "packets passed to higher layer, vector(packetBytes)"
vector 263 SolutionNetwork.switch13.eth[0].mac rxPkOk:vector(packetBytes) ETV
attr interpolationmode none
attr source rxPkOk
attr title "packets received OK, vector(packetBytes)"
vector 264 SolutionNetwork.switch13.eth[0].mac passedUpPk:vector(packetBytes) ETV
attr interpolationmode none
attr source packetSentToUpper
attr title "packets passed to higher layer, vector(packetBytes)"
vector 265 SolutionNetwork.rsu[4].eth.mac rxPkOk:vector(packetBytes) ETV
attr interpolationmode none
attr source rxPkOk
attr title "packets received OK, vector(packetBytes)"
vector 266 SolutionNetwork.rsu[4].eth.mac passedUpPk:vector(packetBytes) ETV
attr interpolationmode none
attr source packetSentToUpper
attr title "packets passed to higher layer, vector(packetBytes)"
vector 267 SolutionNetwork.rsu[3].eth.mac rxPkOk:vector(packetBytes) ETV
attr interpolationmode none
attr source rxPkOk
attr title "packets received OK, vector(packetBytes)"
vector 268 SolutionNetwork.rsu[3].eth.mac passedUpPk:vector(packetBytes) ETV
attr interpolationmode none
attr source packetSentToUpper
attr title "packets passed to higher layer, vector(packetBytes)"
vector 269 SolutionNetwork.ES6.eth.mac rxPkOk:vector(packetBytes) ETV
attr interpolationmode none
attr source rxPkOk
attr title "packets received OK, vector(packetBytes)"
vector 270 SolutionNetwork.ES6.eth.mac passedUpPk:vector(packetBytes) ETV
attr interpolationmode none
attr source packetSentToUpper
attr title "packets passed to higher layer, vector(packetBytes)"
vector 271 SolutionNetwork.ES0.srv packetReceived:vector(packetBytes) ETV
attr interpolationmode none
attr source packetReceived
attr title "packets received, vector(packetBytes)"
vector 272 SolutionNetwork.ES0.srv packetSent:vector(packetBytes) ETV
attr interpolationmode none
attr source packetSent
attr title "packets sent, vector(packetBytes)"
vector 273 SolutionNetwork.switch4.eth[1].mac packetReceivedFromUpper:vector(packetBytes) ETV
attr interpolationmode none
attr source packetReceivedFromUpper
attr title "packet bytes from higher layer, vector(packetBytes)"
vector 274 SolutionNetwork.switch4.eth[1].mac.queue packetPushed:vector(packetBytes) ETV
attr interpolationmode none
attr title "packet pushed, vector(packetBytes)"
vector 275 SolutionNetwork.switch4.eth[1].mac.queue queueLength:vector ETV
attr interpolationmode sample-hold
attr source "count(packetPushed) - count(packetPopped) - count(packetRemoved) - count(packetDropped)"
attr title "queue length, vector"
vector 276 SolutionNetwork.switch4.eth[1].mac.queue packetPopped:vector(packetBytes) ETV
attr interpolationmode none
attr title "packet popped, vector(packetBytes)"
vector 277 SolutionNetwork.switch4.eth[1].mac.queue queueingTime:vector ETV
attr interpolationmode none
attr source queueingTime(packetPopped)
attr title "queueing times, vector"
attr unit s
vector 278 SolutionNetwork.ES2.srv packetReceived:vector(packetBytes) ETV
attr interpolationmode none
attr source packetReceived
attr title "packets received, vector(packetBytes)"
vector 279 SolutionNetwork.ES2.srv packetSent:vector(packetBytes) ETV
attr interpolationmode none
attr source packetSent
attr title "packets sent, vector(packetBytes)"
vector 280 SolutionNetwork.switch9.eth[1].mac packetReceivedFromUpper:vector(packetBytes) ETV
attr interpolationmode none
attr source packetReceivedFromUpper
attr title "packet bytes from higher layer, vector(packetBytes)"
vector 281 SolutionNetwork.switch9.eth[1].mac.queue packetPushed:vector(packetBytes) ETV
attr interpolationmode none
attr title "packet pushed, vector(packetBytes)"
vector 282 SolutionNetwork.switch9.eth[1].mac.queue queueLength:vector ETV
attr interpolationmode sample-hold
attr source "count(packetPushed) - count(packetPopped) - count(packetRemoved) - count(packetDropped)"
attr title "queue length, vector"
vector 283 SolutionNetwork.switch9.eth[1].mac.queue packetPopped:vector(packetBytes) ETV
attr interpolationmode none
attr title "packet popped, vector(packetBytes)"
vector 284 SolutionNetwork.switch9.eth[1].mac.queue queueingTime:vector ETV
attr interpolationmode none
attr source queueingTime(packetPopped)
attr title "queueing times, vector"
attr unit s
vector 285 SolutionNetwork.switch8.eth[0].mac packetReceivedFromUpper:vector(packetBytes) ETV
attr interpolationmode none
attr source packetReceivedFromUpper
attr title "packet bytes from higher layer, vector(packetBytes)"
vector 286 SolutionNetwork.switch8.eth[0].mac.queue packetPushed:vector(packetBytes) ETV
attr interpolationmode none
attr title "packet pushed, vector(packetBytes)"
vector 287 SolutionNetwork.switch8.eth[0].mac.queue queueLength:vector ETV
attr interpolationmode sample-hold
attr source "count(packetPushed) - count(packetPopped) - count(packetRemoved) - count(packetDropped)"
attr title "queue length, vector"
vector 288 SolutionNetwork.switch8.eth[0].mac.queue packetPopped:vector(packetBytes) ETV
attr interpolationmode none
attr title "packet popped, vector(packetBytes)"
vector 289 SolutionNetwork.switch8.eth[0].mac.queue queueingTime:vector ETV
attr interpolationmode none
attr source queueingTime(packetPopped)
attr title "queueing times, vector"
attr unit s
vector 290 SolutionNetwork.ES3.srv packetReceived:vector(packetBytes) ETV
attr interpolationmode none
attr source packetReceived
attr title "packets received, vector(packetBytes)"
vector 291 SolutionNetwork.ES3.srv packetSent:vector(packetBytes) ETV
attr interpolationmode none
attr source packetSent
attr title "packets sent, vector(packetBytes)"
vector 292 SolutionNetwork.switch13.eth[1].mac packetReceivedFromUpper:vector(packetBytes) ETV
attr interpolationmode none
attr source packetReceivedFromUpper
attr title "packet bytes from higher layer, vector(packetBytes)"
vector 293 SolutionNetwork.switch13.eth[1].mac.queue packetPushed:vector(packetBytes) ETV
attr interpolationmode none
attr title "packet pushed, vector(packetBytes)"
vector 294 SolutionNetwork.switch13.eth[1].mac.queue queueLength:vector ETV
attr interpolationmode sample-hold
attr source "count(packetPushed) - count(packetPopped) - count(packetRemoved) - count(packetDropped)"
attr title "queue length, vector"
vector 295 SolutionNetwork.switch13.eth[1].mac.queue packetPopped:vector(packetBytes) ETV
attr interpolationmode none
attr title "packet popped, vector(packetBytes)"
vector 296 SolutionNetwork.switch13.eth[1].mac.queue queueingTime:vector ETV
attr interpolationmode none
attr source queueingTime(packetPopped)
attr title "queueing times, vector"
attr unit s
vector 297 SolutionNetwork.switch13.eth[2].mac packetReceivedFromUpper:vector(packetBytes) ETV
attr interpolationmode none
attr source packetReceivedFromUpper
attr title "packet bytes from higher layer, vector(packetBytes)"
vector 298 SolutionNetwork.switch13.eth[2].mac.queue packetPushed:vector(packetBytes) ETV
attr interpolationmode none
attr title "packet pushed, vector(packetBytes)"
vector 299 SolutionNetwork.switch13.eth[2].mac.queue queueLength:vector ETV
attr interpolationmode sample-hold
attr source "count(packetPushed) - count(packetPopped) - count(packetRemoved) - count(packetDropped)"
attr title "queue length, vector"
vector 300 SolutionNetwork.switch13.eth[2].mac.queue packetPopped:vector(packetBytes) ETV
attr interpolationmode none
attr title "packet popped, vector(packetBytes)"
vector 301 SolutionNetwork.switch13.eth[2].mac.queue queueingTime:vector ETV
attr interpolationmode none
attr source queueingTime(packetPopped)
attr title "queueing times, vector"
attr unit s
vector 302 SolutionNetwork.ES6.srv packetReceived:vector(packetBytes) ETV
attr interpolationmode none
attr source packetReceived
attr title "packets received, vector(packetBytes)"
vector 303 SolutionNetwork.ES6.srv packetSent:vector(packetBytes) ETV
attr interpolationmode none
attr source packetSent
attr title "packets sent, vector(packetBytes)"
vector 304 SolutionNetwork.ES0.llc encapPk:vector(packetBytes) ETV
attr interpolationmode none
attr source encapPk
attr title "packets encapsulated, vector(packetBytes)"
vector 305 SolutionNetwork.ES2.llc encapPk:vector(packetBytes) ETV
attr interpolationmode none
attr source encapPk
attr title "packets encapsulated, vector(packetBytes)"
vector 306 SolutionNetwork.ES3.llc encapPk:vector(packetBytes) ETV
attr interpolationmode none
attr source encapPk
attr title "packets encapsulated, vector(packetBytes)"
vector 307 SolutionNetwork.ES6.llc encapPk:vector(packetBytes) ETV
attr interpolationmode none
attr source encapPk
attr title "packets encapsulated, vector(packetBytes)"
vector 308 SolutionNetwork.ES0.eth.mac packetReceivedFromUpper:vector(packetBytes) ETV
attr interpolationmode none
attr source packetReceivedFromUpper
attr title "packet bytes from higher layer, vector(packetBytes)"
vector 309 SolutionNetwork.ES0.eth.mac.queue packetPushed:vector(packetBytes) ETV
attr interpolationmode none
attr title "packet pushed, vector(packetBytes)"
vector 310 SolutionNetwork.ES0.eth.mac.queue queueLength:vector ETV
attr interpolationmode sample-hold
attr source "count(packetPushed) - count(packetPopped) - count(packetRemoved) - count(packetDropped)"
attr title "queue length, vector"
vector 311 SolutionNetwork.ES0.eth.mac.queue packetPopped:vector(packetBytes) ETV
attr interpolationmode none
attr title "packet popped, vector(packetBytes)"
vector 312 SolutionNetwork.ES0.eth.mac.queue queueingTime:vector ETV
attr interpolationmode none
attr source queueingTime(packetPopped)
attr title "queueing times, vector"
attr unit s
vector 313 SolutionNetwork.ES2.eth.mac packetReceivedFromUpper:vector(packetBytes) ETV
attr interpolationmode none
attr source packetReceivedFromUpper
attr title "packet bytes from higher layer, vector(packetBytes)"
vector 314 SolutionNetwork.ES2.eth.mac.queue packetPushed:vector(packetBytes) ETV
attr interpolationmode none
attr title "packet pushed, vector(packetBytes)"
vector 315 SolutionNetwork.ES2.eth.mac.queue queueLength:vector ETV
attr interpolationmode sample-hold
attr source "count(packetPushed) - count(packetPopped) - count(packetRemoved) - count(packetDropped)"
attr title "queue length, vector"
vector 316 SolutionNetwork.ES2.eth.mac.queue packetPopped:vector(packetBytes) ETV
attr interpolationmode none
attr title "packet popped, vector(packetBytes)"
vector 317 SolutionNetwork.ES2.eth.mac.queue queueingTime:vector ETV
attr interpolationmode none
attr source queueingTime(packetPopped)
attr title "queueing times, vector"
attr unit s
vector 318 SolutionNetwork.ES3.eth.mac packetReceivedFromUpper:vector(packetBytes) ETV
attr interpolationmode none
attr source packetReceivedFromUpper
attr title "packet bytes from higher layer, vector(packetBytes)"
vector 319 SolutionNetwork.ES3.eth.mac.queue packetPushed:vector(packetBytes) ETV
attr interpolationmode none
attr title "packet pushed, vector(packetBytes)"
vector 320 SolutionNetwork.ES3.eth.mac.queue queueLength:vector ETV
attr interpolationmode sample-hold
attr source "count(packetPushed) - count(packetPopped) - count(packetRemoved) - count(packetDropped)"
attr title "queue length, vector"
vector 321 SolutionNetwork.ES3.eth.mac.queue packetPopped:vector(packetBytes) ETV
attr interpolationmode none
attr title "packet popped, vector(packetBytes)"
vector 322 SolutionNetwork.ES3.eth.mac.queue queueingTime:vector ETV
attr interpolationmode none
attr source queueingTime(packetPopped)
attr title "queueing times, vector"
attr unit s
vector 323 SolutionNetwork.ES6.eth.mac packetReceivedFromUpper:vector(packetBytes) ETV
attr interpolationmode none
attr source packetReceivedFromUpper
attr title "packet bytes from higher layer, vector(packetBytes)"
vector 324 SolutionNetwork.ES6.eth.mac.queue packetPushed:vector(packetBytes) ETV
attr interpolationmode none
attr title "packet pushed, vector(packetBytes)"
vector 325 SolutionNetwork.ES6.eth.mac.queue queueLength:vector ETV
attr interpolationmode sample-hold
attr source "count(packetPushed) - count(packetPopped) - count(packetRemoved) - count(packetDropped)"
attr title "queue length, vector"
vector 326 SolutionNetwork.ES6.eth.mac.queue packetPopped:vector(packetBytes) ETV
attr interpolationmode none
attr title "packet popped, vector(packetBytes)"
vector 327 SolutionNetwork.ES6.eth.mac.queue queueingTime:vector ETV
attr interpolationmode none
attr source queueingTime(packetPopped)
attr title "queueing times, vector"
attr unit s
vector 328 SolutionNetwork.switch3.eth[0].mac txPk:vector(packetBytes) ETV
attr interpolationmode none
attr source packetSentToLower
attr title "packets transmitted, vector(packetBytes)"
vector 329 SolutionNetwork.switch3.eth[2].mac txPk:vector(packetBytes) ETV
attr interpolationmode none
attr source packetSentToLower
attr title "packets transmitted, vector(packetBytes)"
vector 330 SolutionNetwork.ES7.eth.mac txPk:vector(packetBytes) ETV
attr interpolationmode none
attr source packetSentToLower
attr title "packets transmitted, vector(packetBytes)"
vector 331 SolutionNetwork.switch1.eth[2].mac rxPkOk:vector(packetBytes) ETV
attr interpolationmode none
attr source rxPkOk
attr title "packets received OK, vector(packetBytes)"
vector 332 SolutionNetwork.switch1.eth[2].mac passedUpPk:vector(packetBytes) ETV
attr interpolationmode none
attr source packetSentToUpper
attr title "packets passed to higher layer, vector(packetBytes)"
vector 333 SolutionNetwork.switch5.eth[1].mac rxPkOk:vector(packetBytes) ETV
attr interpolationmode none
attr source rxPkOk
attr title "packets received OK, vector(packetBytes)"
vector 334 SolutionNetwork.switch5.eth[1].mac passedUpPk:vector(packetBytes) ETV
attr interpolationmode none
attr source packetSentToUpper
attr title "packets passed to higher layer, vector(packetBytes)"
vector 335 SolutionNetwork.switch15.eth[2].mac rxPkOk:vector(packetBytes) ETV
attr interpolationmode none
attr source rxPkOk
attr title "packets received OK, vector(packetBytes)"
vector 336 SolutionNetwork.switch15.eth[2].mac passedUpPk:vector(packetBytes) ETV
attr interpolationmode none
attr source packetSentToUpper
attr title "packets passed to higher layer, vector(packetBytes)"
vector 337 SolutionNetwork.switch1.eth[0].mac packetReceivedFromUpper:vector(packetBytes) ETV
attr interpolationmode none
attr source packetReceivedFromUpper
attr title "packet bytes from higher layer, vector(packetBytes)"
vector 338 SolutionNetwork.switch1.eth[0].mac.queue packetPushed:vector(packetBytes) ETV
attr interpolationmode none
attr title "packet pushed, vector(packetBytes)"
vector 339 SolutionNetwork.switch1.eth[0].mac.queue queueLength:vector ETV
attr interpolationmode sample-hold
attr source "count(packetPushed) - count(packetPopped) - count(packetRemoved) - count(packetDropped)"
attr title "queue length, vector"
vector 340 SolutionNetwork.switch1.eth[0].mac.queue packetPopped:vector(packetBytes) ETV
attr interpolationmode none
attr title "packet popped, vector(packetBytes)"
vector 341 SolutionNetwork.switch1.eth[0].mac.queue queueingTime:vector ETV
attr interpolationmode none
attr source queueingTime(packetPopped)
attr title "queueing times, vector"
attr unit s
vector 342 SolutionNetwork.switch4.eth[1].mac txPk:vector(packetBytes) ETV
attr interpolationmode none
attr source packetSentToLower
attr title "packets transmitted, vector(packetBytes)"
vector 343 SolutionNetwork.switch9.eth[1].mac txPk:vector(packetBytes) ETV
attr interpolationmode none
attr source packetSentToLower
attr title "packets transmitted, vector(packetBytes)"
vector 344 SolutionNetwork.switch8.eth[0].mac txPk:vector(packetBytes) ETV
attr interpolationmode none
attr source packetSentToLower
attr title "packets transmitted, vector(packetBytes)"
vector 345 SolutionNetwork.switch13.eth[1].mac txPk:vector(packetBytes) ETV
attr interpolationmode none
attr source packetSentToLower
attr title "packets transmitted, vector(packetBytes)"
vector 346 SolutionNetwork.switch13.eth[2].mac txPk:vector(packetBytes) ETV
attr interpolationmode none
attr source packetSentToLower
attr title "packets transmitted, vector(packetBytes)"
vector 347 SolutionNetwork.ES1.eth.mac rxPkOk:vector(packetBytes) ETV
attr interpolationmode none
attr source rxPkOk
attr title "packets received OK, vector(packetBytes)"
vector 348 SolutionNetwork.ES1.eth.mac passedUpPk:vector(packetBytes) ETV
attr interpolationmode none
attr source packetSentToUpper
attr title "packets passed to higher layer, vector(packetBytes)"
vector 349 SolutionNetwork.switch10.eth[1].mac rxPkOk:vector(packetBytes) ETV
attr interpolationmode none
attr source rxPkOk
attr title "packets received OK, vector(packetBytes)"
vector 350 SolutionNetwork.switch10.eth[1].mac passedUpPk:vector(packetBytes) ETV
attr interpolationmode none
attr source packetSentToUpper
attr title "packets passed to higher layer, vector(packetBytes)"
vector 351 SolutionNetwork.switch6.eth[3].mac rxPkOk:vector(packetBytes) ETV
attr interpolationmode none
attr source rxPkOk
attr title "packets received OK, vector(packetBytes)"
vector 352 SolutionNetwork.switch6.eth[3].mac passedUpPk:vector(packetBytes) ETV
attr interpolationmode none
attr source packetSentToUpper
attr title "packets passed to higher layer, vector(packetBytes)"
vector 353 SolutionNetwork.ES4.eth.mac rxPkOk:vector(packetBytes) ETV
attr interpolationmode none
attr source rxPkOk
attr title "packets received OK, vector(packetBytes)"
vector 354 SolutionNetwork.ES4.eth.mac passedUpPk:vector(packetBytes) ETV
attr interpolationmode none
attr source packetSentToUpper
attr title "packets passed to higher layer, vector(packetBytes)"
vector 355 SolutionNetwork.switch14.eth[0].mac rxPkOk:vector(packetBytes) ETV
attr interpolationmode none
attr source rxPkOk
attr title "packets received OK, vector(packetBytes)"
vector 356 SolutionNetwork.switch14.eth[0].mac passedUpPk:vector(packetBytes) ETV
attr interpolationmode none
attr source packetSentToUpper
attr title "packets passed to higher layer, vector(packetBytes)"
vector 357 SolutionNetwork.ES1.srv packetReceived:vector(packetBytes) ETV
attr interpolationmode none
attr source packetReceived
attr title "packets received, vector(packetBytes)"
vector 358 SolutionNetwork.ES1.srv packetSent:vector(packetBytes) ETV
attr interpolationmode none
attr source packetSent
attr title "packets sent, vector(packetBytes)"
vector 359 SolutionNetwork.ES4.srv packetReceived:vector(packetBytes) ETV
attr interpolationmode none
attr source packetReceived
attr title "packets received, vector(packetBytes)"
vector 360 SolutionNetwork.ES4.srv packetSent:vector(packetBytes) ETV
attr interpolationmode none
attr source packetSent
attr title "packets sent, vector(packetBytes)"
vector 361 SolutionNetwork.switch14.eth[1].mac packetReceivedFromUpper:vector(packetBytes) ETV
attr interpolationmode none
attr source packetReceivedFromUpper
attr title "packet bytes from higher layer, vector(packetBytes)"
vector 362 SolutionNetwork.switch14.eth[1].mac.queue packetPushed:vector(packetBytes) ETV
attr interpolationmode none
attr title "packet pushed, vector(packetBytes)"
vector 363 SolutionNetwork.switch14.eth[1].mac.queue queueLength:vector ETV
attr interpolationmode sample-hold
attr source "count(packetPushed) - count(packetPopped) - count(packetRemoved) - count(packetDropped)"
attr title "queue length, vector"
vector 364 SolutionNetwork.switch14.eth[1].mac.queue packetPopped:vector(packetBytes) ETV
attr interpolationmode none
attr title "packet popped, vector(packetBytes)"
vector 365 SolutionNetwork.switch14.eth[1].mac.queue queueingTime:vector ETV
attr interpolationmode none
attr source queueingTime(packetPopped)
attr title "queueing times, vector"
attr unit s
vector 366 SolutionNetwork.ES1.llc encapPk:vector(packetBytes) ETV
attr interpolationmode none
attr source encapPk
attr title "packets encapsulated, vector(packetBytes)"
vector 367 SolutionNetwork.ES4.llc encapPk:vector(packetBytes) ETV
attr interpolationmode none
attr source encapPk
attr title "packets encapsulated, vector(packetBytes)"
vector 368 SolutionNetwork.ES1.eth.mac packetReceivedFromUpper:vector(packetBytes) ETV
attr interpolationmode none
attr source packetReceivedFromUpper
attr title "packet bytes from higher layer, vector(packetBytes)"
vector 369 SolutionNetwork.ES1.eth.mac.queue packetPushed:vector(packetBytes) ETV
attr interpolationmode none
attr title "packet pushed, vector(packetBytes)"
vector 370 SolutionNetwork.ES1.eth.mac.queue queueLength:vector ETV
attr interpolationmode sample-hold
attr source "count(packetPushed) - count(packetPopped) - count(packetRemoved) - count(packetDropped)"
attr title "queue length, vector"
vector 371 SolutionNetwork.ES1.eth.mac.queue packetPopped:vector(packetBytes) ETV
attr interpolationmode none
attr title "packet popped, vector(packetBytes)"
vector 372 SolutionNetwork.ES1.eth.mac.queue queueingTime:vector ETV
attr interpolationmode none
attr source queueingTime(packetPopped)
attr title "queueing times, vector"
attr unit s
vector 373 SolutionNetwork.ES4.eth.mac packetReceivedFromUpper:vector(packetBytes) ETV
attr interpolationmode none
attr source packetReceivedFromUpper
attr title "packet bytes from higher layer, vector(packetBytes)"
vector 374 SolutionNetwork.ES4.eth.mac.queue packetPushed:vector(packetBytes) ETV
attr interpolationmode none
attr title "packet pushed, vector(packetBytes)"
vector 375 SolutionNetwork.ES4.eth.mac.queue queueLength:vector ETV
attr interpolationmode sample-hold
attr source "count(packetPushed) - count(packetPopped) - count(packetRemoved) - count(packetDropped)"
attr title "queue length, vector"
vector 376 SolutionNetwork.ES4.eth.mac.queue packetPopped:vector(packetBytes) ETV
attr interpolationmode none
attr title "packet popped, vector(packetBytes)"
vector 377 SolutionNetwork.ES4.eth.mac.queue queueingTime:vector ETV
attr interpolationmode none
attr source queueingTime(packetPopped)
attr title "queueing times, vector"
attr unit s
vector 378 SolutionNetwork.ES0.eth.mac txPk:vector(packetBytes) ETV
attr interpolationmode none
attr source packetSentToLower
attr title "packets transmitted, vector(packetBytes)"
vector 379 SolutionNetwork.ES2.eth.mac txPk:vector(packetBytes) ETV
attr interpolationmode none
attr source packetSentToLower
attr title "packets transmitted, vector(packetBytes)"
vector 380 SolutionNetwork.ES3.eth.mac txPk:vector(packetBytes) ETV
attr interpolationmode none
attr source packetSentToLower
attr title "packets transmitted, vector(packetBytes)"
vector 381 SolutionNetwork.ES6.eth.mac txPk:vector(packetBytes) ETV
attr interpolationmode none
attr source packetSentToLower
attr title "packets transmitted, vector(packetBytes)"
vector 382 SolutionNetwork.switch1.eth[0].mac txPk:vector(packetBytes) ETV
attr interpolationmode none
attr source packetSentToLower
attr title "packets transmitted, vector(packetBytes)"
vector 383 SolutionNetwork.switch2.eth[1].mac rxPkOk:vector(packetBytes) ETV
attr interpolationmode none
attr source rxPkOk
attr title "packets received OK, vector(packetBytes)"
vector 384 SolutionNetwork.switch2.eth[1].mac passedUpPk:vector(packetBytes) ETV
attr interpolationmode none
attr source packetSentToUpper
attr title "packets passed to higher layer, vector(packetBytes)"
vector 385 SolutionNetwork.switch7.eth[1].mac rxPkOk:vector(packetBytes) ETV
attr interpolationmode none
attr source rxPkOk
attr title "packets received OK, vector(packetBytes)"
vector 386 SolutionNetwork.switch7.eth[1].mac passedUpPk:vector(packetBytes) ETV
attr interpolationmode none
attr source packetSentToUpper
attr title "packets passed to higher layer, vector(packetBytes)"
vector 387 SolutionNetwork.switch11.eth[1].mac rxPkOk:vector(packetBytes) ETV
attr interpolationmode none
attr source rxPkOk
attr title "packets received OK, vector(packetBytes)"
vector 388 SolutionNetwork.switch11.eth[1].mac passedUpPk:vector(packetBytes) ETV
attr interpolationmode none
attr source packetSentToUpper
attr title "packets passed to higher layer, vector(packetBytes)"
vector 389 SolutionNetwork.switch16.eth[1].mac rxPkOk:vector(packetBytes) ETV
attr interpolationmode none
attr source rxPkOk
attr title "packets received OK, vector(packetBytes)"
vector 390 SolutionNetwork.switch16.eth[1].mac passedUpPk:vector(packetBytes) ETV
attr interpolationmode none
attr source packetSentToUpper
attr title "packets passed to higher layer, vector(packetBytes)"
vector 391 SolutionNetwork.rsu[0].eth.mac rxPkOk:vector(packetBytes) ETV
attr interpolationmode none
attr source rxPkOk
attr title "packets received OK, vector(packetBytes)"
vector 392 SolutionNetwork.rsu[0].eth.mac passedUpPk:vector(packetBytes) ETV
attr interpolationmode none
attr source packetSentToUpper
[...]
196	1657207 10006 146 2090516 0.00001528 90.10847317273 335 0 7.2e-007 2.88e-006 2.0736e-012
197	1667213 10593 147 2090436 0.00001528 90.10838817273 347 64 85 29369 2488301
198	1677806 10593 147 2090436 0.00001528 90.10838817273 347 64 85 29369 2488301
199	1688399 20492 147 2090436 0.00001528 90.10838817273 694 0 1 347 347
200	1708891 10593 147 2090436 0.00001528 90.10838817273 347 64 85 29369 2488301
201	1719484 10274 147 2090436 0.00001528 90.10838817273 347 0 7.2e-007 2.88e-006 2.0736e-012
202	1729758 336 148 8218 0.00001528 0.573088688672 13 85 85 1105 93925
203	1730094 336 148 8218 0.00001528 0.573088688672 13 85 85 1105 93925
204	1730430 646 148 8218 0.00001528 0.573088688672 26 0 1 13 13
205	1731076 336 148 8218 0.00001528 0.573088688672 13 85 85 1105 93925
206	1731412 323 148 8218 0.00001528 0.573088688672 13 0 0 0 0
207	1731735 336 149 8219 0.00001528 0.573088688672 13 85 85 1105 93925
208	1732071 336 149 8219 0.00001528 0.573088688672 13 85 85 1105 93925
209	1732407 646 149 8219 0.00001528 0.573088688672 26 0 1 13 13
210	1733053 336 149 8219 0.00001528 0.573088688672 13 85 85 1105 93925
211	1733389 323 149 8219 0.00001528 0.573088688672 13 0 0 0 0
212	1733712 4977 152 2090537 0.00001528 90.10849609273 165 64 85 13941 1179609
213	1738689 4977 152 2090537 0.00001528 90.10849609273 165 64 85 13941 1179609
214	1743666 9631 152 2090537 0.00001528 90.10849609273 330 0 1 165 165
215	1753297 4984 152 2090537 0.00001528 90.10849609273 165 64 85 13941 1179609
216	1758281 4880 152 2090537 0.00001528 90.10849609273 165 0 5.76e-006 3.264e-005 1.726848e-010
217	1763161 6078 153 1885169 0.00001528 74.572740646898 201 64 85 17001 1439709
218	1769239 6078 153 1885169 0.00001528 74.572740646898 201 64 85 17001 1439709
219	1775317 11761 153 1885169 0.00001528 74.572740646898 402 0 6 283 601
220	1787078 6085 153 1885169 0.00001528 74.572740646898 201 64 85 17001 1439709
221	1793163 6052 153 1885169 0.00001528 74.572740646898 201 0 4.688e-005 0.0004126 1.35345616e-008
222	1799215 340 157 8254 0.00001528 0.573096328672 13 85 85 1105 93925
223	1799555 340 157 8254 0.00001528 0.573096328672 13 85 85 1105 93925
224	1799895 654 157 8254 0.00001528 0.573096328672 26 0 1 13 13
225	1800549 340 157 8254 0.00001528 0.573096328672 13 85 85 1105 93925
226	1800889 327 157 8254 0.00001528 0.573096328672 13 0 0 0 0
227	1801216 340 158 8255 0.00001528 0.573096328672 13 64 64 832 53248
228	1801556 118 158 2014 0.00001528 0.00007744 5 64 64 320 20480
229	1801674 118 159 2015 0.00001528 0.00007744 5 64 64 320 20480
230	1801792 118 160 2016 0.00001528 0.00007744 5 85 85 425 36125
231	1801910 118 160 2016 0.00001528 0.00007744 5 85 85 425 36125
232	1802028 226 160 2016 0.00001528 0.00007744 10 0 1 5 5
233	1802254 118 160 2016 0.00001528 0.00007744 5 85 85 425 36125
234	1802372 113 160 2016 0.00001528 0.00007744 5 0 0 0 0
235	1802485 338 208 8114 0.00002272 0.573050288672 13 85 85 1105 93925
236	1802823 24659 209 2096759 0.00002272 91.77774582173 788 85 85 66980 5693300
237	1827482 5974 210 1539510 0.00002272 60.521255556927 198 64 85 16746 1418034
238	1833456 6061 211 1881846 0.00002272 74.455838614137 200 64 85 16916 1432484
239	1839517 339 212 8179 0.00002272 0.573073208672 13 85 85 1105 93925
240	1839856 10310 213 2090520 0.00002272 90.10848061273 335 64 85 28349 2401601
241	1850166 10602 214 2090440 0.00002272 90.10839561273 347 64 85 29369 2488301
242	1860768 339 215 8236 0.00002272 0.573096128672 13 85 85 1105 93925
243	1861107 339 216 8237 0.00002272 0.573096128672 13 85 85 1105 93925
244	1861446 4993 217 2090541 0.00002272 90.10850353273 165 64 85 13941 1179609
245	1866439 6084 218 1885173 0.00002272 74.572748086898 201 64 85 17001 1439709
246	1872523 340 219 8272 0.00002272 0.573103768672 13 85 85 1105 93925
247	1872863 338 220 8117 0.00002292 0.573050488672 13 85 85 1105 93925
248	1873201 338 220 8117 0.00002292 0.573050488672 13 85 85 1105 93925
249	1873539 24659 221 2096760 0.00002292 91.77774602173 788 85 85 66980 5693300
250	1898198 24659 221 2096760 0.00002292 91.77774602173 788 85 85 66980 5693300
251	1922857 5974 222 1539511 0.00002292 60.521255756927 198 64 85 16746 1418034
252	1928831 5974 222 1539511 0.00002292 60.521255756927 198 64 85 16746 1418034
253	1934805 6061 223 1881847 0.00002292 74.455838814137 200 64 85 16916 1432484
254	1940866 6061 223 1881847 0.00002292 74.455838814137 200 64 85 16916 1432484
255	1946927 339 224 8181 0.00002292 0.573073408672 13 85 85 1105 93925
256	1947266 339 224 8181 0.00002292 0.573073408672 13 85 85 1105 93925
257	1947605 10311 225 2090521 0.00002292 90.10848081273 335 64 85 28349 2401601
258	1957916 10311 225 2090521 0.00002292 90.10848081273 335 64 85 28349 2401601
259	1968227 10602 226 2090441 0.00002292 90.10839581273 347 64 85 29369 2488301
260	1978829 10602 226 2090441 0.00002292 90.10839581273 347 64 85 29369 2488301
261	1989431 339 227 8241 0.00002292 0.573096328672 13 85 85 1105 93925
262	1989770 339 227 8241 0.00002292 0.573096328672 13 85 85 1105 93925
263	1990109 339 228 8242 0.00002292 0.573096328672 13 85 85 1105 93925
264	1990448 339 228 8242 0.00002292 0.573096328672 13 85 85 1105 93925
265	1990787 4992 229 2090542 0.00002292 90.10850373273 165 64 85 13941 1179609
266	1995779 4992 229 2090542 0.00002292 90.10850373273 165 64 85 13941 1179609
267	2000771 6084 230 1885174 0.00002292 74.572748286898 201 64 85 17001 1439709
268	2006855 6084 230 1885174 0.00002292 74.572748286898 201 64 85 17001 1439709
269	2012939 340 231 8275 0.00002292 0.573103968672 13 85 85 1105 93925
270	2013279 340 231 8275 0.00002292 0.573103968672 13 85 85 1105 93925
271	2013619 338 244 8123 0.00002292 0.573050488672 13 64 64 832 53248
272	2013957 116 244 2423 0.00002292 0.0000918 5 64 64 320 20480
273	2014073 24659 245 2096762 0.00002292 91.77774602173 788 85 85 66980 5693300
274	2038732 24659 245 2096762 0.00002292 91.77774602173 788 85 85 66980 5693300
275	2063391 47742 245 2096762 0.00002292 91.77774602173 1576 0 1 788 788
276	2111133 24659 245 2096762 0.00002292 91.77774602173 788 85 85 66980 5693300
277	2135792 23871 245 2096762 0.00002292 91.77774602173 788 0 0 0 0
278	2159663 339 248 8185 0.00002292 0.573073408672 13 64 64 832 53248
279	2160002 117 248 1522 0.00002292 0.00006264 5 64 64 320 20480
280	2160119 10311 249 2090523 0.00002292 90.10848081273 335 64 85 28349 2401601
281	2170430 10311 249 2090523 0.00002292 90.10848081273 335 64 85 28349 2401601
282	2180741 19952 249 2090523 0.00002292 90.10848081273 670 0 1 335 335
283	2200693 10311 249 2090523 0.00002292 90.10848081273 335 64 85 28349 2401601
284	2211004 10004 249 2090523 0.00002292 90.10848081273 335 0 7.2e-007 2.88e-006 2.0736e-012
285	2221008 10602 250 2090443 0.00002292 90.10839581273 347 64 85 29369 2488301
286	2231610 10602 250 2090443 0.00002292 90.10839581273 347 64 85 29369 2488301
287	2242212 20511 250 2090443 0.00002292 90.10839581273 694 0 1 347 347
288	2262723 10603 250 2090443 0.00002292 90.10839581273 347 64 85 29369 2488301
289	2273326 10284 250 2090443 0.00002292 90.10839581273 347 0 7.2e-007 2.88e-006 2.0736e-012
290	2283610 339 251 8251 0.00002292 0.573096328672 13 64 64 832 53248
291	2283949 117 251 1756 0.00002292 0.00006972 5 64 64 320 20480
292	2284066 339 252 8252 0.00002292 0.573096328672 13 85 85 1105 93925
293	2284405 339 252 8252 0.00002292 0.573096328672 13 85 85 1105 93925
294	2284744 652 252 8252 0.00002292 0.573096328672 26 0 1 13 13
295	2285396 339 252 8252 0.00002292 0.573096328672 13 85 85 1105 93925
296	2285735 326 252 8252 0.00002292 0.573096328672 13 0 0 0 0
297	2286061 339 253 8253 0.00002292 0.573096328672 13 85 85 1105 93925
298	2286400 339 253 8253 0.00002292 0.573096328672 13 85 85 1105 93925
299	2286739 652 253 8253 0.00002292 0.573096328672 26 0 1 13 13
300	2287391 339 253 8253 0.00002292 0.573096328672 13 85 85 1105 93925
301	2287730 326 253 8253 0.00002292 0.573096328672 13 0 0 0 0
302	2288056 340 256 8281 0.00002292 0.573103968672 13 64 64 832 53248
303	2288396 118 256 2262 0.00002292 0.00008508 5 64 64 320 20480
304	2288514 116 257 2424 0.00002292 0.0000918 5 64 64 320 20480
305	2288630 117 260 1523 0.00002292 0.00006264 5 64 64 320 20480
306	2288747 117 261 1759 0.00002292 0.00006972 5 64 64 320 20480
307	2288864 118 264 2263 0.00002292 0.00008508 5 64 64 320 20480
308	2288982 116 265 2425 0.00002292 0.0000918 5 85 85 425 36125
309	2289098 116 265 2425 0.00002292 0.0000918 5 85 85 425 36125
310	2289214 222 265 2425 0.00002292 0.0000918 10 0 1 5 5
311	2289436 116 265 2425 0.00002292 0.0000918 5 85 85 425 36125
312	2289552 111 265 2425 0.00002292 0.0000918 5 0 0 0 0
313	2289663 117 268 1524 0.00002292 0.00006264 5 85 85 425 36125
314	2289780 117 268 1524 0.00002292 0.00006264 5 85 85 425 36125
315	2289897 224 268 1524 0.00002292 0.00006264 10 0 1 5 5
316	2290121 117 268 1524 0.00002292 0.00006264 5 85 85 425 36125
317	2290238 112 268 1524 0.00002292 0.00006264 5 0 0 0 0
318	2290350 117 269 1760 0.00002292 0.00006972 5 85 85 425 36125
319	2290467 117 269 1760 0.00002292 0.00006972 5 85 85 425 36125
320	2290584 224 269 1760 0.00002292 0.00006972 10 0 1 5 5
321	2290808 117 269 1760 0.00002292 0.00006972 5 85 85 425 36125
322	2290925 112 269 1760 0.00002292 0.00006972 5 0 0 0 0
323	2291037 118 272 2264 0.00002292 0.00008508 5 85 85 425 36125
324	2291155 118 272 2264 0.00002292 0.00008508 5 85 85 425 36125
325	2291273 226 272 2264 0.00002292 0.00008508 10 0 1 5 5
326	2291499 118 272 2264 0.00002292 0.00008508 5 85 85 425 36125
327	2291617 113 272 2264 0.00002292 0.00008508 5 0 0 0 0
328	2291730 5016 286 2096790 0.00002368 91.77777734173 166 64 85 14026 1186834
329	2296746 20520 287 2090499 0.00002368 90.10845769273 659 64 85 55931 4748759
330	2317266 118 288 2289 0.00002368 0.00008584 5 85 85 425 36125
331	2317384 5016 328 2096791 0.00002388 91.77777754173 166 64 85 14026 1186834
332	2322400 5016 328 2096791 0.00002388 91.77777754173 166 64 85 14026 1186834
333	2327416 20520 329 2090500 0.00002388 90.10845789273 659 64 85 55931 4748759
334	2347936 20520 329 2090500 0.00002388 90.10845789273 659 64 85 55931 4748759
335	2368456 118 330 2302 0.00002388 0.00008604 5 85 85 425 36125
336	2368574 118 330 2302 0.00002388 0.00008604 5 85 85 425 36125
337	2368692 5039 351 2096793 0.00002388 91.77777754173 167 64 85 14111 1194059
338	2373731 5039 351 2096793 0.00002388 91.77777754173 167 64 85 14111 1194059
339	2378770 9744 351 2096793 0.00002388 91.77777754173 334 0 1 167 167
340	2388514 5039 351 2096793 0.00002388 91.77777754173 167 64 85 14111 1194059
341	2393553 4879 351 2096793 0.00002388 91.77777754173 167 0 7.2e-007 7.2e-007 5.184e-013
342	2398432 24659 406 2096766 0.00003036 91.77775346173 788 85 85 66980 5693300
343	2423091 10315 407 2090527 0.00003036 90.10848825273 335 64 85 28349 2401601
344	2433406 10601 408 2090447 0.00003036 90.10840325273 347 64 85 29369 2488301
345	2444007 340 409 8270 0.00003036 0.573103768672 13 85 85 1105 93925
346	2444347 340 410 8271 0.00003036 0.573103768672 13 85 85 1105 93925
347	2444687 24659 411 2096767 0.00003056 91.77775366173 788 85 85 66980 5693300
348	2469346 24659 411 2096767 0.00003056 91.77775366173 788 85 85 66980 5693300
349	2494005 10314 412 2090528 0.00003056 90.10848845273 335 64 85 28349 2401601
350	2504319 10314 412 2090528 0.00003056 90.10848845273 335 64 85 28349 2401601
351	2514633 10601 413 2090448 0.00003056 90.10840345273 347 64 85 29369 2488301
352	2525234 10601 413 2090448 0.00003056 90.10840345273 347 64 85 29369 2488301
353	2535835 340 414 8273 0.00003056 0.573103968672 13 85 85 1105 93925
354	2536175 340 414 8273 0.00003056 0.573103968672 13 85 85 1105 93925
355	2536515 340 415 8274 0.00003056 0.573103968672 13 85 85 1105 93925
356	2536855 340 415 8274 0.00003056 0.573103968672 13 85 85 1105 93925
357	2537195 24659 421 2096769 0.00003056 91.77775366173 788 64 64 50432 3227648
358	2561854 24437 421 2096770 0.00003056 91.77775366173 780 64 64 49920 3194880
359	2586291 340 429 8279 0.00003056 0.573103968672 13 64 64 832 53248
360	2586631 118 429 2005 0.00003056 0.00007736 5 64 64 320 20480
361	2586749 340 430 8280 0.00003056 0.573103968672 13 85 85 1105 93925
362	2587089 340 430 8280 0.00003056 0.573103968672 13 85 85 1105 93925
363	2587429 654 430 8280 0.00003056 0.573103968672 26 0 1 13 13
364	2588083 340 430 8280 0.00003056 0.573103968672 13 85 85 1105 93925
365	2588423 327 430 8280 0.00003056 0.573103968672 13 0 0 0 0
366	2588750 24437 431 2096771 0.00003056 91.77775366173 780 64 64 49920 3194880
367	2613187 118 432 2007 0.00003056 0.00007736 5 64 64 320 20480
368	2613305 24437 433 2096772 0.00003056 91.77775366173 780 85 85 66300 5635500
369	2637742 24437 433 2096772 0.00003056 91.77775366173 780 85 85 66300 5635500
370	2662179 47314 433 2096772 0.00003056 91.77775366173 1560 0 1 780 780
371	2709493 24437 433 2096772 0.00003056 91.77775366173 780 85 85 66300 5635500
372	2733930 23657 433 2096772 0.00003056 91.77775366173 780 0 0 0 0
373	2757587 118 434 2008 0.00003056 0.00007736 5 85 85 425 36125
374	2757705 118 434 2008 0.00003056 0.00007736 5 85 85 425 36125
375	2757823 226 434 2008 0.00003056 0.00007736 10 0 1 5 5
376	2758049 118 434 2008 0.00003056 0.00007736 5 85 85 425 36125
377	2758167 113 434 2008 0.00003056 0.00007736 5 0 0 0 0
378	2758280 117 454 2621 0.00003132 0.0001002 5 85 85 425 36125
379	2758397 118 455 1815 0.00003132 0.00007104 5 85 85 425 36125
380	2758515 118 456 2037 0.00003132 0.00007812 5 85 85 425 36125
381	2758633 118 457 2475 0.00003132 0.00009348 5 85 85 425 36125
382	2758751 5049 465 2096797 0.00003132 91.77778498173 167 64 85 14111 1194059
383	2763800 116 496 2624 0.00003152 0.0001004 5 85 85 425 36125
384	2763916 116 496 2624 0.00003152 0.0001004 5 85 85 425 36125
385	2764032 118 497 1818 0.00003152 0.00007124 5 85 85 425 36125
386	2764150 118 497 1818 0.00003152 0.00007124 5 85 85 425 36125
387	2764268 118 498 2050 0.00003152 0.00007832 5 85 85 425 36125
388	2764386 118 498 2050 0.00003152 0.00007832 5 85 85 425 36125
389	2764504 118 499 2481 0.00003152 0.00009368 5 85 85 425 36125
390	2764622 118 499 2481 0.00003152 0.00009368 5 85 85 425 36125
391	2764740 5049 500 2096798 0.00003152 91.77778518173 167 64 85 14111 1194059
392	2769789 5049 500 2096798 0.00003152 91.77778518173 167 64 85 14111 1194059
393	2774838 116 524 2627 0.00003152 0.0001004 5 85 85 425 36125
394	2774954 116 524 2627 0.00003152 0.0001004 5 85 85 425 36125
395	2775070 222 524 2627 0.00003152 0.0001004 10 0 1 5 5
396	2775292 116 524 2627 0.00003152 0.0001004 5 85 85 425 36125
397	2775408 111 524 2627 0.00003152 0.0001004 5 0 0 0 0
398	2775519 118 525 1824 0.00003152 0.00007124 5 85 85 425 36125
399	2775637 118 525 1824 0.00003152 0.00007124 5 85 85 425 36125
400	2775755 226 525 1824 0.00003152 0.00007124 10 0 1 5 5
401	2775981 118 525 1824 0.00003152 0.00007124 5 85 85 425 36125
402	2776099 113 525 1824 0.00003152 0.00007124 5 0 0 0 0
403	2776212 118 526 2056 0.00003152 0.00007832 5 85 85 425 36125
404	2776330 118 526 2056 0.00003152 0.00007832 5 85 85 425 36125
405	2776448 226 526 2056 0.00003152 0.00007832 10 0 1 5 5
406	2776674 118 526 2056 0.00003152 0.00007832 5 85 85 425 36125
407	2776792 113 526 2056 0.00003152 0.00007832 5 0 0 0 0
408	2776905 118 527 2485 0.00003152 0.00009368 5 85 85 425 36125
409	2777023 118 527 2485 0.00003152 0.00009368 5 85 85 425 36125
410	2777141 226 527 2485 0.00003152 0.00009368 10 0 1 5 5
411	2777367 118 527 2485 0.00003152 0.00009368 5 85 85 425 36125
412	2777485 113 527 2485 0.00003152 0.00009368 5 0 0 0 0
413	2777598 336 618 8289 0.000038 0.573111408672 13 85 85 1105 93925
414	2777934 336 623 8290 0.0000382 0.573111608672 13 85 85 1105 93925
415	2778270 336 623 8290 0.0000382 0.573111608672 13 85 85 1105 93925
416	2778606 336 631 8292 0.0000382 0.573111608672 13 64 64 832 53248
417	2778942 114 631 2250 0.0000382 0.000085 5 64 64 320 20480
418	2779056 114 632 2251 0.0000382 0.000085 5 64 64 320 20480
419	2779170 114 633 2252 0.0000382 0.000085 5 85 85 425 36125
420	2779284 114 633 2252 0.0000382 0.000085 5 85 85 425 36125
421	2779398 218 633 2252 0.0000382 0.000085 10 0 1 5 5
422	2779616 114 633 2252 0.0000382 0.000085 5 85 85 425 36125
423	2779730 109 633 2252 0.0000382 0.000085 5 0 0 0 0
424	2779839 24438 667 2096776 0.00003896 91.77776206173 780 85 85 66300 5635500
425	2804277 118 668 2278 0.00003896 0.00008576 5 85 85 425 36125
426	2804395 118 674 2067 0.00003896 0.00007868 5 85 85 425 36125
427	2804513 118 675 2281 0.00003896 0.00008576 5 85 85 425 36125
428	2804631 118 676 2645 0.00003896 0.00010112 5 85 85 425 36125
429	2804749 24438 702 2096777 0.00003916 91.77776226173 780 85 85 66300 5635500
430	2829187 24438 702 2096777 0.00003916 91.77776226173 780 85 85 66300 5635500
431	2853625 118 703 2293 0.00003916 0.00008596 5 85 85 425 36125
432	2853743 118 703 2293 0.00003916 0.00008596 5 85 85 425 36125
433	2853861 118 704 2074 0.00003916 0.00007888 5 85 85 425 36125
434	2853979 118 704 2074 0.00003916 0.00007888 5 85 85 425 36125
435	2854097 118 705 2294 0.00003916 0.00008596 5 85 85 425 36125
436	2854215 118 705 2294 0.00003916 0.00008596 5 85 85 425 36125
437	2854333 118 706 2651 0.00003916 0.00010132 5 85 85 425 36125
438	2854451 118 706 2651 0.00003916 0.00010132 5 85 85 425 36125
439	2854569 24438 720 2096779 0.00003916 91.77776226173 780 85 85 66300 5635500
440	2879007 24438 720 2096779 0.00003916 91.77776226173 780 85 85 66300 5635500
441	2903445 47316 720 2096779 0.00003916 91.77776226173 1560 0 1 780 780
442	2950761 24438 720 2096779 0.00003916 91.77776226173 780 85 85 66300 5635500
443	2975199 23658 720 2096779 0.00003916 91.77776226173 780 0 0 0 0
444	2998857 238 721 2649 0.00003916 0.00010124 10 85 85 850 72250
445	2999095 238 721 2649 0.00003916 0.00010124 10 85 85 850 72250
446	2999333 446 721 2890 0.00003916 0.0001138 20 0 3 24 42
447	2999779 228 721 2890 0.00003916 0.0001138 10 85 85 850 72250
448	3000007 285 721 2890 0.00003916 0.0001138 10 0 1.944e-005 7.504e-005 9.651584e-010
449	3000292 119 755 2789 0.00003992 0.00010784 5 85 85 425 36125
450	3000411 119 784 2791 0.00004012 0.00010804 5 85 85 425 36125
451	3000530 119 784 2791 0.00004012 0.00010804 5 85 85 425 36125
452	3000649 115 910 2471 0.0000466 0.0000934 5 85 85 425 36125
453	3000764 24435 915 2096783 0.0000466 91.77776970173 780 85 85 66300 5635500
454	3025199 227 916 3033 0.0000466 0.0001222 10 85 85 850 72250
455	3025426 116 933 2477 0.0000468 0.0000936 5 85 85 425 36125
456	3025542 116 933 2477 0.0000468 0.0000936 5 85 85 425 36125
457	3025658 24436 934 2096784 0.0000468 91.77776990173 780 85 85 66300 5635500
458	3050094 24436 934 2096784 0.0000468 91.77776990173 780 85 85 66300 5635500
459	3074530 227 935 3035 0.0000468 0.0001224 10 85 85 850 72250
460	3074757 227 935 3035 0.0000468 0.0001224 10 85 85 850 72250
461	3074984 116 946 2480 0.0000468 0.0000936 5 85 85 425 36125
462	3075100 116 946 2480 0.0000468 0.0000936 5 85 85 425 36125
463	3075216 222 946 2480 0.0000468 0.0000936 10 0 1 5 5
464	3075438 116 946 2480 0.0000468 0.0000936 5 85 85 425 36125
465	3075554 111 946 2480 0.0000468 0.0000936 5 0 0 0 0
466	3075665 227 948 3039 0.0000468 0.0001224 10 85 85 850 72250
467	3075892 227 948 3039 0.0000468 0.0001224 10 85 85 850 72250
468	3076119 434 948 3039 0.0000468 0.0001224 20 0 1 10 10
469	3076553 227 948 3039 0.0000468 0.0001224 10 85 85 850 72250
470	3076780 217 948 3039 0.0000468 0.0001224 10 0 0 0 0
471	3076997 120 1176 2641 0.00005424 0.00010104 5 85 85 425 36125
472	3077117 120 1195 2647 0.00005444 0.00010124 5 85 85 425 36125
473	3077237 120 1195 2647 0.00005444 0.00010124 5 85 85 425 36125
474	3077357 228 1223 3175 0.000055 0.0001306 10 85 85 850 72250
475	3077585 228 1233 3176 0.0000552 0.0001308 10 85 85 850 72250
476	3077813 228 1233 3176 0.0000552 0.0001308 10 85 85 850 72250

