file 389987766 1623428497                                       
version 2
run Default-0-20210612-01:20:30-7232
attr configname Default
attr datetime 20210612-01:20:30
attr experiment Default
attr inifile omnetpp.ini
attr iterationvars ""
attr iterationvarsf ""
attr measurement ""
attr network SolutionNetwork
attr processid 7232
attr repetition 0
attr replication #0
attr resultdir results
attr runnumber 0
attr seedset 7232
param *.playgroundSizeX 2600m
param *.playgroundSizeY 2500m
param *.playgroundSizeZ 50m
param *.annotations.draw true
param *.obstacles.debug false
param *.manager.updateInterval 2.5s
param *.manager.host "\"localhost\""
param *.manager.port 9999
param *.manager.autoShutdown true
param *.manager.launchConfig "xmldoc(\"Solutions.launchd.xml\")"
param *.rsu[0].mobility.x 250
param *.rsu[0].mobility.y 100
param *.rsu[0].mobility.z 0
param *.rsu[1].mobility.x 750
param *.rsu[1].mobility.y 100
param *.rsu[1].mobility.z 0
param *.rsu[2].mobility.x 1250
param *.rsu[2].mobility.y 100
param *.rsu[2].mobility.z 0
param *.rsu[3].mobility.x 1750
param *.rsu[3].mobility.y 100
param *.rsu[3].mobility.z 0
param *.rsu[4].mobility.x 2250
param *.rsu[4].mobility.y 100
param *.rsu[4].mobility.z 0
param *.rsu[*].applType "\"RSUClusterAppOriginal\""
param *.rsu[*].appl.headerLength "80 bit"
param *.rsu[*].appl.sendBeacons true
param *.rsu[*].appl.dataOnSch false
param *.rsu[*].appl.beaconInterval 0s
param *.rsu[*].appl.beaconUserPriority 7
param *.rsu[*].appl.dataUserPriority 5
param *.rsu[*].nic.phy80211p.antennaOffsetZ "0 m"
param *.connectionManager.sendDirect true
param *.connectionManager.maxInterfDist 2600m
param *.connectionManager.drawMaxIntfDist false
param *.**.nic.mac1609_4.useServiceChannel false
param *.**.nic.mac1609_4.txPower 50mW
param *.**.nic.mac1609_4.bitrate 12Mbps
param *.**.nic.phy80211p.minPowerLevel -110dBm
param *.**.nic.phy80211p.allowTxDuringRx true
param *.**.nic.phy80211p.useNoiseFloor true
param *.**.nic.phy80211p.noiseFloor -98dBm
param *.**.nic.phy80211p.decider "xmldoc(\"config.xml\")"
param *.**.nic.phy80211p.analogueModels "xmldoc(\"config.xml\")"
param *.**.nic.phy80211p.usePropagationDelay true
param *.**.nic.phy80211p.antenna "xmldoc(\"antenna.xml\", \"/root/Antenna[@id='monopole']\")"
param *.node[*].nic.phy80211p.antennaOffsetY "0 m"
param *.node[*].nic.phy80211p.antennaOffsetZ "1.895 m"
param *.node[*].applType "\"VehicleApp\""
param *.node[*].appl.headerLength "80 bit"
param *.node[*].appl.sendBeacons false
param *.node[*].appl.dataOnSch false
param *.node[*].appl.beaconInterval 1s
param *.node[*].veinsmobility.x 0
param *.node[*].veinsmobility.y 0
param *.node[*].veinsmobility.z 0
param *.node[*].veinsmobility.setHostSpeed false
param *.node[*0].veinsmobility.accidentCount 0
param *.node[*0].veinsmobility.accidentStart 73s
param *.node[*0].veinsmobility.accidentDuration 50s
param *.ES0.srv.ClockFrequency 4
param *.ES1.srv.ClockFrequency 5
param *.ES2.srv.ClockFrequency 7
param *.ES3.srv.ClockFrequency 5
param *.ES4.srv.ClockFrequency 4
param *.ES5.srv.ClockFrequency 7
param *.ES6.srv.ClockFrequency 5
param *.ES7.srv.ClockFrequency 4

vector 0 SolutionNetwork.rsu[0].eth.encap encapPk:vector(packetBytes) ETV
attr interpolationmode none
attr source encapPk
attr title "packets encapsulated, vector(packetBytes)"
vector 1 SolutionNetwork.rsu[1].eth.encap encapPk:vector(packetBytes) ETV
attr interpolationmode none
attr source encapPk
attr title "packets encapsulated, vector(packetBytes)"
vector 2 SolutionNetwork.rsu[2].eth.encap encapPk:vector(packetBytes) ETV
attr interpolationmode none
attr source encapPk
attr title "packets encapsulated, vector(packetBytes)"
vector 3 SolutionNetwork.rsu[3].eth.encap encapPk:vector(packetBytes) ETV
attr interpolationmode none
attr source encapPk
attr title "packets encapsulated, vector(packetBytes)"
vector 4 SolutionNetwork.rsu[4].eth.encap encapPk:vector(packetBytes) ETV
attr interpolationmode none
attr source encapPk
attr title "packets encapsulated, vector(packetBytes)"
vector 5 SolutionNetwork.rsu[0].eth.mac packetReceivedFromUpper:vector(packetBytes) ETV
attr interpolationmode none
attr source packetReceivedFromUpper
attr title "packet bytes from higher layer, vector(packetBytes)"
vector 6 SolutionNetwork.rsu[0].eth.mac.queue packetPushed:vector(packetBytes) ETV
attr interpolationmode none
attr title "packet pushed, vector(packetBytes)"
vector 7 SolutionNetwork.rsu[0].eth.mac.queue queueLength:vector ETV
attr interpolationmode sample-hold
attr source "count(packetPushed) - count(packetPopped) - count(packetRemoved) - count(packetDropped)"
attr title "queue length, vector"
vector 8 SolutionNetwork.rsu[0].eth.mac.queue packetPopped:vector(packetBytes) ETV
attr interpolationmode none
attr title "packet popped, vector(packetBytes)"
vector 9 SolutionNetwork.rsu[0].eth.mac.queue queueingTime:vector ETV
attr interpolationmode none
attr source queueingTime(packetPopped)
attr title "queueing times, vector"
attr unit s
vector 10 SolutionNetwork.rsu[1].eth.mac packetReceivedFromUpper:vector(packetBytes) ETV
attr interpolationmode none
attr source packetReceivedFromUpper
attr title "packet bytes from higher layer, vector(packetBytes)"
vector 11 SolutionNetwork.rsu[1].eth.mac.queue packetPushed:vector(packetBytes) ETV
attr interpolationmode none
attr title "packet pushed, vector(packetBytes)"
vector 12 SolutionNetwork.rsu[1].eth.mac.queue queueLength:vector ETV
attr interpolationmode sample-hold
attr source "count(packetPushed) - count(packetPopped) - count(packetRemoved) - count(packetDropped)"
attr title "queue length, vector"
vector 13 SolutionNetwork.rsu[1].eth.mac.queue packetPopped:vector(packetBytes) ETV
attr interpolationmode none
attr title "packet popped, vector(packetBytes)"
vector 14 SolutionNetwork.rsu[1].eth.mac.queue queueingTime:vector ETV
attr interpolationmode none
attr source queueingTime(packetPopped)
attr title "queueing times, vector"
attr unit s
vector 15 SolutionNetwork.rsu[2].eth.mac packetReceivedFromUpper:vector(packetBytes) ETV
attr interpolationmode none
attr source packetReceivedFromUpper
attr title "packet bytes from higher layer, vector(packetBytes)"
vector 16 SolutionNetwork.rsu[2].eth.mac.queue packetPushed:vector(packetBytes) ETV
attr interpolationmode none
attr title "packet pushed, vector(packetBytes)"
vector 17 SolutionNetwork.rsu[2].eth.mac.queue queueLength:vector ETV
attr interpolationmode sample-hold
attr source "count(packetPushed) - count(packetPopped) - count(packetRemoved) - count(packetDropped)"
attr title "queue length, vector"
vector 18 SolutionNetwork.rsu[2].eth.mac.queue packetPopped:vector(packetBytes) ETV
attr interpolationmode none
attr title "packet popped, vector(packetBytes)"
vector 19 SolutionNetwork.rsu[2].eth.mac.queue queueingTime:vector ETV
attr interpolationmode none
attr source queueingTime(packetPopped)
attr title "queueing times, vector"
attr unit s
vector 20 SolutionNetwork.rsu[3].eth.mac packetReceivedFromUpper:vector(packetBytes) ETV
attr interpolationmode none
attr source packetReceivedFromUpper
attr title "packet bytes from higher layer, vector(packetBytes)"
vector 21 SolutionNetwork.rsu[3].eth.mac.queue packetPushed:vector(packetBytes) ETV
attr interpolationmode none
attr title "packet pushed, vector(packetBytes)"
vector 22 SolutionNetwork.rsu[3].eth.mac.queue queueLength:vector ETV
attr interpolationmode sample-hold
attr source "count(packetPushed) - count(packetPopped) - count(packetRemoved) - count(packetDropped)"
attr title "queue length, vector"
vector 23 SolutionNetwork.rsu[3].eth.mac.queue packetPopped:vector(packetBytes) ETV
attr interpolationmode none
attr title "packet popped, vector(packetBytes)"
vector 24 SolutionNetwork.rsu[3].eth.mac.queue queueingTime:vector ETV
attr interpolationmode none
attr source queueingTime(packetPopped)
attr title "queueing times, vector"
attr unit s
vector 25 SolutionNetwork.rsu[4].eth.mac packetReceivedFromUpper:vector(packetBytes) ETV
attr interpolationmode none
attr source packetReceivedFromUpper
attr title "packet bytes from higher layer, vector(packetBytes)"
vector 26 SolutionNetwork.rsu[4].eth.mac.queue packetPushed:vector(packetBytes) ETV
attr interpolationmode none
attr title "packet pushed, vector(packetBytes)"
vector 27 SolutionNetwork.rsu[4].eth.mac.queue queueLength:vector ETV
attr interpolationmode sample-hold
attr source "count(packetPushed) - count(packetPopped) - count(packetRemoved) - count(packetDropped)"
attr title "queue length, vector"
vector 28 SolutionNetwork.rsu[4].eth.mac.queue packetPopped:vector(packetBytes) ETV
attr interpolationmode none
attr title "packet popped, vector(packetBytes)"
vector 29 SolutionNetwork.rsu[4].eth.mac.queue queueingTime:vector ETV
attr interpolationmode none
attr source queueingTime(packetPopped)
attr title "queueing times, vector"
attr unit s
vector 30 SolutionNetwork.rsu[0].eth.mac txPk:vector(packetBytes) ETV
attr interpolationmode none
attr source packetSentToLower
attr title "packets transmitted, vector(packetBytes)"
vector 31 SolutionNetwork.rsu[1].eth.mac txPk:vector(packetBytes) ETV
attr interpolationmode none
attr source packetSentToLower
attr title "packets transmitted, vector(packetBytes)"
vector 32 SolutionNetwork.rsu[2].eth.mac txPk:vector(packetBytes) ETV
attr interpolationmode none
attr source packetSentToLower
attr title "packets transmitted, vector(packetBytes)"
vector 33 SolutionNetwork.rsu[3].eth.mac txPk:vector(packetBytes) ETV
attr interpolationmode none
attr source packetSentToLower
attr title "packets transmitted, vector(packetBytes)"
vector 34 SolutionNetwork.rsu[4].eth.mac txPk:vector(packetBytes) ETV
attr interpolationmode none
attr source packetSentToLower
attr title "packets transmitted, vector(packetBytes)"
vector 35 SolutionNetwork.switch1.eth[0].mac rxPkOk:vector(packetBytes) ETV
attr interpolationmode none
attr source rxPkOk
attr title "packets received OK, vector(packetBytes)"
vector 36 SolutionNetwork.switch1.eth[0].mac passedUpPk:vector(packetBytes) ETV
attr interpolationmode none
attr source packetSentToUpper
attr title "packets passed to higher layer, vector(packetBytes)"
vector 37 SolutionNetwork.switch5.eth[0].mac rxPkOk:vector(packetBytes) ETV
attr interpolationmode none
attr source rxPkOk
attr title "packets received OK, vector(packetBytes)"
vector 38 SolutionNetwork.switch5.eth[0].mac passedUpPk:vector(packetBytes) ETV
attr interpolationmode none
attr source packetSentToUpper
attr title "packets passed to higher layer, vector(packetBytes)"
vector 39 SolutionNetwork.switch6.eth[0].mac rxPkOk:vector(packetBytes) ETV
attr interpolationmode none
attr source rxPkOk
attr title "packets received OK, vector(packetBytes)"
vector 40 SolutionNetwork.switch6.eth[0].mac passedUpPk:vector(packetBytes) ETV
attr interpolationmode none
attr source packetSentToUpper
attr title "packets passed to higher layer, vector(packetBytes)"
vector 41 SolutionNetwork.switch10.eth[0].mac rxPkOk:vector(packetBytes) ETV
attr interpolationmode none
attr source rxPkOk
attr title "packets received OK, vector(packetBytes)"
vector 42 SolutionNetwork.switch10.eth[0].mac passedUpPk:vector(packetBytes) ETV
attr interpolationmode none
attr source packetSentToUpper
attr title "packets passed to higher layer, vector(packetBytes)"
vector 43 SolutionNetwork.switch15.eth[3].mac rxPkOk:vector(packetBytes) ETV
attr interpolationmode none
attr source rxPkOk
attr title "packets received OK, vector(packetBytes)"
vector 44 SolutionNetwork.switch15.eth[3].mac passedUpPk:vector(packetBytes) ETV
attr interpolationmode none
attr source packetSentToUpper
attr title "packets passed to higher layer, vector(packetBytes)"
vector 45 SolutionNetwork.switch1.eth[1].mac packetReceivedFromUpper:vector(packetBytes) ETV
attr interpolationmode none
attr source packetReceivedFromUpper
attr title "packet bytes from higher layer, vector(packetBytes)"
vector 46 SolutionNetwork.switch1.eth[1].mac.queue packetPushed:vector(packetBytes) ETV
attr interpolationmode none
attr title "packet pushed, vector(packetBytes)"
vector 47 SolutionNetwork.switch1.eth[1].mac.queue queueLength:vector ETV
attr interpolationmode sample-hold
attr source "count(packetPushed) - count(packetPopped) - count(packetRemoved) - count(packetDropped)"
attr title "queue length, vector"
vector 48 SolutionNetwork.switch1.eth[1].mac.queue packetPopped:vector(packetBytes) ETV
attr interpolationmode none
attr title "packet popped, vector(packetBytes)"
vector 49 SolutionNetwork.switch1.eth[1].mac.queue queueingTime:vector ETV
attr interpolationmode none
attr source queueingTime(packetPopped)
attr title "queueing times, vector"
attr unit s
vector 50 SolutionNetwork.switch1.eth[2].mac packetReceivedFromUpper:vector(packetBytes) ETV
attr interpolationmode none
attr source packetReceivedFromUpper
attr title "packet bytes from higher layer, vector(packetBytes)"
vector 51 SolutionNetwork.switch1.eth[2].mac.queue packetPushed:vector(packetBytes) ETV
attr interpolationmode none
attr title "packet pushed, vector(packetBytes)"
vector 52 SolutionNetwork.switch1.eth[2].mac.queue queueLength:vector ETV
attr interpolationmode sample-hold
attr source "count(packetPushed) - count(packetPopped) - count(packetRemoved) - count(packetDropped)"
attr title "queue length, vector"
vector 53 SolutionNetwork.switch1.eth[2].mac.queue packetPopped:vector(packetBytes) ETV
attr interpolationmode none
attr title "packet popped, vector(packetBytes)"
vector 54 SolutionNetwork.switch1.eth[2].mac.queue queueingTime:vector ETV
attr interpolationmode none
attr source queueingTime(packetPopped)
attr title "queueing times, vector"
attr unit s
vector 55 SolutionNetwork.switch5.eth[1].mac packetReceivedFromUpper:vector(packetBytes) ETV
attr interpolationmode none
attr source packetReceivedFromUpper
attr title "packet bytes from higher layer, vector(packetBytes)"
vector 56 SolutionNetwork.switch5.eth[1].mac.queue packetPushed:vector(packetBytes) ETV
attr interpolationmode none
attr title "packet pushed, vector(packetBytes)"
vector 57 SolutionNetwork.switch5.eth[1].mac.queue queueLength:vector ETV
attr interpolationmode sample-hold
attr source "count(packetPushed) - count(packetPopped) - count(packetRemoved) - count(packetDropped)"
attr title "queue length, vector"
vector 58 SolutionNetwork.switch5.eth[1].mac.queue packetPopped:vector(packetBytes) ETV
attr interpolationmode none
attr title "packet popped, vector(packetBytes)"
vector 59 SolutionNetwork.switch5.eth[1].mac.queue queueingTime:vector ETV
attr interpolationmode none
attr source queueingTime(packetPopped)
attr title "queueing times, vector"
attr unit s
vector 60 SolutionNetwork.switch5.eth[2].mac packetReceivedFromUpper:vector(packetBytes) ETV
attr interpolationmode none
attr source packetReceivedFromUpper
attr title "packet bytes from higher layer, vector(packetBytes)"
vector 61 SolutionNetwork.switch5.eth[2].mac.queue packetPushed:vector(packetBytes) ETV
attr interpolationmode none
attr title "packet pushed, vector(packetBytes)"
vector 62 SolutionNetwork.switch5.eth[2].mac.queue queueLength:vector ETV
attr interpolationmode sample-hold
attr source "count(packetPushed) - count(packetPopped) - count(packetRemoved) - count(packetDropped)"
attr title "queue length, vector"
vector 63 SolutionNetwork.switch5.eth[2].mac.queue packetPopped:vector(packetBytes) ETV
attr interpolationmode none
attr title "packet popped, vector(packetBytes)"
vector 64 SolutionNetwork.switch5.eth[2].mac.queue queueingTime:vector ETV
attr interpolationmode none
attr source queueingTime(packetPopped)
attr title "queueing times, vector"
attr unit s
vector 65 SolutionNetwork.switch6.eth[1].mac packetReceivedFromUpper:vector(packetBytes) ETV
attr interpolationmode none
attr source packetReceivedFromUpper
attr title "packet bytes from higher layer, vector(packetBytes)"
vector 66 SolutionNetwork.switch6.eth[1].mac.queue packetPushed:vector(packetBytes) ETV
attr interpolationmode none
attr title "packet pushed, vector(packetBytes)"
vector 67 SolutionNetwork.switch6.eth[1].mac.queue queueLength:vector ETV
attr interpolationmode sample-hold
attr source "count(packetPushed) - count(packetPopped) - count(packetRemoved) - count(packetDropped)"
attr title "queue length, vector"
vector 68 SolutionNetwork.switch6.eth[1].mac.queue packetPopped:vector(packetBytes) ETV
attr interpolationmode none
attr title "packet popped, vector(packetBytes)"
vector 69 SolutionNetwork.switch6.eth[1].mac.queue queueingTime:vector ETV
attr interpolationmode none
attr source queueingTime(packetPopped)
attr title "queueing times, vector"
attr unit s
vector 70 SolutionNetwork.switch6.eth[2].mac packetReceivedFromUpper:vector(packetBytes) ETV
attr interpolationmode none
attr source packetReceivedFromUpper
attr title "packet bytes from higher layer, vector(packetBytes)"
vector 71 SolutionNetwork.switch6.eth[2].mac.queue packetPushed:vector(packetBytes) ETV
attr interpolationmode none
attr title "packet pushed, vector(packetBytes)"
vector 72 SolutionNetwork.switch6.eth[2].mac.queue queueLength:vector ETV
attr interpolationmode sample-hold
attr source "count(packetPushed) - count(packetPopped) - count(packetRemoved) - count(packetDropped)"
attr title "queue length, vector"
vector 73 SolutionNetwork.switch6.eth[2].mac.queue packetPopped:vector(packetBytes) ETV
attr interpolationmode none
attr title "packet popped, vector(packetBytes)"
vector 74 SolutionNetwork.switch6.eth[2].mac.queue queueingTime:vector ETV
attr interpolationmode none
attr source queueingTime(packetPopped)
attr title "queueing times, vector"
attr unit s
vector 75 SolutionNetwork.switch6.eth[3].mac packetReceivedFromUpper:vector(packetBytes) ETV
attr interpolationmode none
attr source packetReceivedFromUpper
attr title "packet bytes from higher layer, vector(packetBytes)"
vector 76 SolutionNetwork.switch6.eth[3].mac.queue packetPushed:vector(packetBytes) ETV
attr interpolationmode none
attr title "packet pushed, vector(packetBytes)"
vector 77 SolutionNetwork.switch6.eth[3].mac.queue queueLength:vector ETV
attr interpolationmode sample-hold
attr source "count(packetPushed) - count(packetPopped) - count(packetRemoved) - count(packetDropped)"
attr title "queue length, vector"
vector 78 SolutionNetwork.switch6.eth[3].mac.queue packetPopped:vector(packetBytes) ETV
attr interpolationmode none
attr title "packet popped, vector(packetBytes)"
vector 79 SolutionNetwork.switch6.eth[3].mac.queue queueingTime:vector ETV
attr interpolationmode none
attr source queueingTime(packetPopped)
attr title "queueing times, vector"
attr unit s
vector 80 SolutionNetwork.switch10.eth[1].mac packetReceivedFromUpper:vector(packetBytes) ETV
attr interpolationmode none
attr source packetReceivedFromUpper
attr title "packet bytes from higher layer, vector(packetBytes)"
vector 81 SolutionNetwork.switch10.eth[1].mac.queue packetPushed:vector(packetBytes) ETV
attr interpolationmode none
attr title "packet pushed, vector(packetBytes)"
vector 82 SolutionNetwork.switch10.eth[1].mac.queue queueLength:vector ETV
attr interpolationmode sample-hold
attr source "count(packetPushed) - count(packetPopped) - count(packetRemoved) - count(packetDropped)"
attr title "queue length, vector"
vector 83 SolutionNetwork.switch10.eth[1].mac.queue packetPopped:vector(packetBytes) ETV
attr interpolationmode none
attr title "packet popped, vector(packetBytes)"
vector 84 SolutionNetwork.switch10.eth[1].mac.queue queueingTime:vector ETV
attr interpolationmode none
attr source queueingTime(packetPopped)
attr title "queueing times, vector"
attr unit s
vector 85 SolutionNetwork.switch10.eth[2].mac packetReceivedFromUpper:vector(packetBytes) ETV
attr interpolationmode none
attr source packetReceivedFromUpper
attr title "packet bytes from higher layer, vector(packetBytes)"
vector 86 SolutionNetwork.switch10.eth[2].mac.queue packetPushed:vector(packetBytes) ETV
attr interpolationmode none
attr title "packet pushed, vector(packetBytes)"
vector 87 SolutionNetwork.switch10.eth[2].mac.queue queueLength:vector ETV
attr interpolationmode sample-hold
attr source "count(packetPushed) - count(packetPopped) - count(packetRemoved) - count(packetDropped)"
attr title "queue length, vector"
vector 88 SolutionNetwork.switch10.eth[2].mac.queue packetPopped:vector(packetBytes) ETV
attr interpolationmode none
attr title "packet popped, vector(packetBytes)"
vector 89 SolutionNetwork.switch10.eth[2].mac.queue queueingTime:vector ETV
attr interpolationmode none
attr source queueingTime(packetPopped)
attr title "queueing times, vector"
attr unit s
vector 90 SolutionNetwork.switch10.eth[3].mac packetReceivedFromUpper:vector(packetBytes) ETV
attr interpolationmode none
attr source packetReceivedFromUpper
attr title "packet bytes from higher layer, vector(packetBytes)"
vector 91 SolutionNetwork.switch10.eth[3].mac.queue packetPushed:vector(packetBytes) ETV
attr interpolationmode none
attr title "packet pushed, vector(packetBytes)"
vector 92 SolutionNetwork.switch10.eth[3].mac.queue queueLength:vector ETV
attr interpolationmode sample-hold
attr source "count(packetPushed) - count(packetPopped) - count(packetRemoved) - count(packetDropped)"
attr title "queue length, vector"
vector 93 SolutionNetwork.switch10.eth[3].mac.queue packetPopped:vector(packetBytes) ETV
attr interpolationmode none
attr title "packet popped, vector(packetBytes)"
vector 94 SolutionNetwork.switch10.eth[3].mac.queue queueingTime:vector ETV
attr interpolationmode none
attr source queueingTime(packetPopped)
attr title "queueing times, vector"
attr unit s
vector 95 SolutionNetwork.switch10.eth[4].mac packetReceivedFromUpper:vector(packetBytes) ETV
attr interpolationmode none
attr source packetReceivedFromUpper
attr title "packet bytes from higher layer, vector(packetBytes)"
vector 96 SolutionNetwork.switch10.eth[4].mac.queue packetPushed:vector(packetBytes) ETV
attr interpolationmode none
attr title "packet pushed, vector(packetBytes)"
vector 97 SolutionNetwork.switch10.eth[4].mac.queue queueLength:vector ETV
attr interpolationmode sample-hold
attr source "count(packetPushed) - count(packetPopped) - count(packetRemoved) - count(packetDropped)"
attr title "queue length, vector"
vector 98 SolutionNetwork.switch10.eth[4].mac.queue packetPopped:vector(packetBytes) ETV
attr interpolationmode none
attr title "packet popped, vector(packetBytes)"
vector 99 SolutionNetwork.switch10.eth[4].mac.queue queueingTime:vector ETV
attr interpolationmode none
attr source queueingTime(packetPopped)
attr title "queueing times, vector"
attr unit s
vector 100 SolutionNetwork.switch15.eth[0].mac packetReceivedFromUpper:vector(packetBytes) ETV
attr interpolationmode none
attr source packetReceivedFromUpper
attr title "packet bytes from higher layer, vector(packetBytes)"
vector 101 SolutionNetwork.switch15.eth[0].mac.queue packetPushed:vector(packetBytes) ETV
attr interpolationmode none
attr title "packet pushed, vector(packetBytes)"
vector 102 SolutionNetwork.switch15.eth[0].mac.queue queueLength:vector ETV
attr interpolationmode sample-hold
attr source "count(packetPushed) - count(packetPopped) - count(packetRemoved) - count(packetDropped)"
attr title "queue length, vector"
vector 103 SolutionNetwork.switch15.eth[0].mac.queue packetPopped:vector(packetBytes) ETV
attr interpolationmode none
attr title "packet popped, vector(packetBytes)"
vector 104 SolutionNetwork.switch15.eth[0].mac.queue queueingTime:vector ETV
attr interpolationmode none
attr source queueingTime(packetPopped)
attr title "queueing times, vector"
attr unit s
vector 105 SolutionNetwork.switch15.eth[1].mac packetReceivedFromUpper:vector(packetBytes) ETV
attr interpolationmode none
attr source packetReceivedFromUpper
attr title "packet bytes from higher layer, vector(packetBytes)"
vector 106 SolutionNetwork.switch15.eth[1].mac.queue packetPushed:vector(packetBytes) ETV
attr interpolationmode none
attr title "packet pushed, vector(packetBytes)"
vector 107 SolutionNetwork.switch15.eth[1].mac.queue queueLength:vector ETV
attr interpolationmode sample-hold
attr source "count(packetPushed) - count(packetPopped) - count(packetRemoved) - count(packetDropped)"
attr title "queue length, vector"
vector 108 SolutionNetwork.switch15.eth[1].mac.queue packetPopped:vector(packetBytes) ETV
attr interpolationmode none
attr title "packet popped, vector(packetBytes)"
vector 109 SolutionNetwork.switch15.eth[1].mac.queue queueingTime:vector ETV
attr interpolationmode none
attr source queueingTime(packetPopped)
attr title "queueing times, vector"
attr unit s
vector 110 SolutionNetwork.switch15.eth[2].mac packetReceivedFromUpper:vector(packetBytes) ETV
attr interpolationmode none
attr source packetReceivedFromUpper
attr title "packet bytes from higher layer, vector(packetBytes)"
vector 111 SolutionNetwork.switch15.eth[2].mac.queue packetPushed:vector(packetBytes) ETV
attr interpolationmode none
attr title "packet pushed, vector(packetBytes)"
vector 112 SolutionNetwork.switch15.eth[2].mac.queue queueLength:vector ETV
attr interpolationmode sample-hold
attr source "count(packetPushed) - count(packetPopped) - count(packetRemoved) - count(packetDropped)"
attr title "queue length, vector"
vector 113 SolutionNetwork.switch15.eth[2].mac.queue packetPopped:vector(packetBytes) ETV
attr interpolationmode none
attr title "packet popped, vector(packetBytes)"
vector 114 SolutionNetwork.switch15.eth[2].mac.queue queueingTime:vector ETV
attr interpolationmode none
attr source queueingTime(packetPopped)
attr title "queueing times, vector"
attr unit s
vector 115 SolutionNetwork.switch1.eth[1].mac txPk:vector(packetBytes) ETV
attr interpolationmode none
attr source packetSentToLower
attr title "packets transmitted, vector(packetBytes)"
vector 116 SolutionNetwork.switch1.eth[2].mac txPk:vector(packetBytes) ETV
attr interpolationmode none
attr source packetSentToLower
attr title "packets transmitted, vector(packetBytes)"
vector 117 SolutionNetwork.switch5.eth[1].mac txPk:vector(packetBytes) ETV
attr interpolationmode none
attr source packetSentToLower
attr title "packets transmitted, vector(packetBytes)"
vector 118 SolutionNetwork.switch5.eth[2].mac txPk:vector(packetBytes) ETV
attr interpolationmode none
attr source packetSentToLower
attr title "packets transmitted, vector(packetBytes)"
vector 119 SolutionNetwork.switch6.eth[1].mac txPk:vector(packetBytes) ETV
attr interpolationmode none
attr source packetSentToLower
attr title "packets transmitted, vector(packetBytes)"
vector 120 SolutionNetwork.switch6.eth[2].mac txPk:vector(packetBytes) ETV
attr interpolationmode none
attr source packetSentToLower
attr title "packets transmitted, vector(packetBytes)"
vector 121 SolutionNetwork.switch6.eth[3].mac txPk:vector(packetBytes) ETV
attr interpolationmode none
attr source packetSentToLower
attr title "packets transmitted, vector(packetBytes)"
vector 122 SolutionNetwork.switch10.eth[1].mac txPk:vector(packetBytes) ETV
attr interpolationmode none
attr source packetSentToLower
attr title "packets transmitted, vector(packetBytes)"
vector 123 SolutionNetwork.switch10.eth[2].mac txPk:vector(packetBytes) ETV
attr interpolationmode none
attr source packetSentToLower
attr title "packets transmitted, vector(packetBytes)"
vector 124 SolutionNetwork.switch10.eth[3].mac txPk:vector(packetBytes) ETV
attr interpolationmode none
attr source packetSentToLower
attr title "packets transmitted, vector(packetBytes)"
vector 125 SolutionNetwork.switch10.eth[4].mac txPk:vector(packetBytes) ETV
attr interpolationmode none
attr source packetSentToLower
attr title "packets transmitted, vector(packetBytes)"
vector 126 SolutionNetwork.switch15.eth[0].mac txPk:vector(packetBytes) ETV
attr interpolationmode none
attr source packetSentToLower
attr title "packets transmitted, vector(packetBytes)"
vector 127 SolutionNetwork.switch15.eth[1].mac txPk:vector(packetBytes) ETV
attr interpolationmode none
attr source packetSentToLower
attr title "packets transmitted, vector(packetBytes)"
vector 128 SolutionNetwork.switch15.eth[2].mac txPk:vector(packetBytes) ETV
attr interpolationmode none
attr source packetSentToLower
attr title "packets transmitted, vector(packetBytes)"
vector 129 SolutionNetwork.switch2.eth[0].mac rxPkOk:vector(packetBytes) ETV
attr interpolationmode none
attr source rxPkOk
attr title "packets received OK, vector(packetBytes)"
vector 130 SolutionNetwork.switch2.eth[0].mac passedUpPk:vector(packetBytes) ETV
attr interpolationmode none
attr source packetSentToUpper
attr title "packets passed to higher layer, vector(packetBytes)"
vector 131 SolutionNetwork.switch3.eth[0].mac rxPkOk:vector(packetBytes) ETV
attr interpolationmode none
attr source rxPkOk
attr title "packets received OK, vector(packetBytes)"
vector 132 SolutionNetwork.switch3.eth[0].mac passedUpPk:vector(packetBytes) ETV
attr interpolationmode none
attr source packetSentToUpper
attr title "packets passed to higher layer, vector(packetBytes)"
vector 133 SolutionNetwork.switch3.eth[2].mac rxPkOk:vector(packetBytes) ETV
attr interpolationmode none
attr source rxPkOk
attr title "packets received OK, vector(packetBytes)"
vector 134 SolutionNetwork.switch3.eth[2].mac passedUpPk:vector(packetBytes) ETV
attr interpolationmode none
attr source packetSentToUpper
attr title "packets passed to higher layer, vector(packetBytes)"
vector 135 SolutionNetwork.switch6.eth[1].mac rxPkOk:vector(packetBytes) ETV
attr interpolationmode none
attr source rxPkOk
attr title "packets received OK, vector(packetBytes)"
vector 136 SolutionNetwork.switch6.eth[1].mac passedUpPk:vector(packetBytes) ETV
attr interpolationmode none
attr source packetSentToUpper
attr title "packets passed to higher layer, vector(packetBytes)"
vector 137 SolutionNetwork.switch5.eth[2].mac rxPkOk:vector(packetBytes) ETV
attr interpolationmode none
attr source rxPkOk
attr title "packets received OK, vector(packetBytes)"
vector 138 SolutionNetwork.switch5.eth[2].mac passedUpPk:vector(packetBytes) ETV
attr interpolationmode none
attr source packetSentToUpper
attr title "packets passed to higher layer, vector(packetBytes)"
vector 139 SolutionNetwork.switch7.eth[0].mac rxPkOk:vector(packetBytes) ETV
attr interpolationmode none
attr source rxPkOk
attr title "packets received OK, vector(packetBytes)"
vector 140 SolutionNetwork.switch7.eth[0].mac passedUpPk:vector(packetBytes) ETV
attr interpolationmode none
attr source packetSentToUpper
attr title "packets passed to higher layer, vector(packetBytes)"
vector 141 SolutionNetwork.switch8.eth[0].mac rxPkOk:vector(packetBytes) ETV
attr interpolationmode none
attr source rxPkOk
attr title "packets received OK, vector(packetBytes)"
vector 142 SolutionNetwork.switch8.eth[0].mac passedUpPk:vector(packetBytes) ETV
attr interpolationmode none
attr source packetSentToUpper
attr title "packets passed to higher layer, vector(packetBytes)"
vector 143 SolutionNetwork.switch9.eth[1].mac rxPkOk:vector(packetBytes) ETV
attr interpolationmode none
attr source rxPkOk
attr title "packets received OK, vector(packetBytes)"
vector 144 SolutionNetwork.switch9.eth[1].mac passedUpPk:vector(packetBytes) ETV
attr interpolationmode none
attr source packetSentToUpper
attr title "packets passed to higher layer, vector(packetBytes)"
vector 145 SolutionNetwork.switch11.eth[0].mac rxPkOk:vector(packetBytes) ETV
attr interpolationmode none
attr source rxPkOk
attr title "packets received OK, vector(packetBytes)"
vector 146 SolutionNetwork.switch11.eth[0].mac passedUpPk:vector(packetBytes) ETV
attr interpolationmode none
attr source packetSentToUpper
attr title "packets passed to higher layer, vector(packetBytes)"
vector 147 SolutionNetwork.switch12.eth[0].mac rxPkOk:vector(packetBytes) ETV
attr interpolationmode none
attr source rxPkOk
attr title "packets received OK, vector(packetBytes)"
vector 148 SolutionNetwork.switch12.eth[0].mac passedUpPk:vector(packetBytes) ETV
attr interpolationmode none
attr source packetSentToUpper
attr title "packets passed to higher layer, vector(packetBytes)"
vector 149 SolutionNetwork.switch17.eth[0].mac rxPkOk:vector(packetBytes) ETV
attr interpolationmode none
attr source rxPkOk
attr title "packets received OK, vector(packetBytes)"
vector 150 SolutionNetwork.switch17.eth[0].mac passedUpPk:vector(packetBytes) ETV
attr interpolationmode none
attr source packetSentToUpper
attr title "packets passed to higher layer, vector(packetBytes)"
vector 151 SolutionNetwork.switch18.eth[1].mac rxPkOk:vector(packetBytes) ETV
attr interpolationmode none
attr source rxPkOk
attr title "packets received OK, vector(packetBytes)"
vector 152 SolutionNetwork.switch18.eth[1].mac passedUpPk:vector(packetBytes) ETV
attr interpolationmode none
attr source packetSentToUpper
attr title "packets passed to higher layer, vector(packetBytes)"
vector 153 SolutionNetwork.switch16.eth[0].mac rxPkOk:vector(packetBytes) ETV
attr interpolationmode none
attr source rxPkOk
attr title "packets received OK, vector(packetBytes)"
vector 154 SolutionNetwork.switch16.eth[0].mac passedUpPk:vector(packetBytes) ETV
attr interpolationmode none
attr source packetSentToUpper
attr title "packets passed to higher layer, vector(packetBytes)"
vector 155 SolutionNetwork.ES7.eth.mac rxPkOk:vector(packetBytes) ETV
attr interpolationmode none
attr source rxPkOk
attr title "packets received OK, vector(packetBytes)"
vector 156 SolutionNetwork.ES7.eth.mac passedUpPk:vector(packetBytes) ETV
attr interpolationmode none
attr source packetSentToUpper
attr title "packets passed to higher layer, vector(packetBytes)"
vector 157 SolutionNetwork.switch2.eth[1].mac packetReceivedFromUpper:vector(packetBytes) ETV
attr interpolationmode none
attr source packetReceivedFromUpper
attr title "packet bytes from higher layer, vector(packetBytes)"
vector 158 SolutionNetwork.switch2.eth[1].mac.queue packetPushed:vector(packetBytes) ETV
attr interpolationmode none
attr title "packet pushed, vector(packetBytes)"
vector 159 SolutionNetwork.switch2.eth[1].mac.queue queueLength:vector ETV
attr interpolationmode sample-hold
attr source "count(packetPushed) - count(packetPopped) - count(packetRemoved) - count(packetDropped)"
attr title "queue length, vector"
vector 160 SolutionNetwork.switch2.eth[1].mac.queue packetPopped:vector(packetBytes) ETV
attr interpolationmode none
attr title "packet popped, vector(packetBytes)"
vector 161 SolutionNetwork.switch2.eth[1].mac.queue queueingTime:vector ETV
attr interpolationmode none
attr source queueingTime(packetPopped)
attr title "queueing times, vector"
attr unit s
vector 162 SolutionNetwork.switch3.eth[1].mac packetReceivedFromUpper:vector(packetBytes) ETV
attr interpolationmode none
attr source packetReceivedFromUpper
attr title "packet bytes from higher layer, vector(packetBytes)"
vector 163 SolutionNetwork.switch3.eth[1].mac.queue packetPushed:vector(packetBytes) ETV
attr interpolationmode none
attr title "packet pushed, vector(packetBytes)"
vector 164 SolutionNetwork.switch3.eth[1].mac.queue queueLength:vector ETV
attr interpolationmode sample-hold
attr source "count(packetPushed) - count(packetPopped) - count(packetRemoved) - count(packetDropped)"
attr title "queue length, vector"
vector 165 SolutionNetwork.switch3.eth[1].mac.queue packetPopped:vector(packetBytes) ETV
attr interpolationmode none
attr title "packet popped, vector(packetBytes)"
vector 166 SolutionNetwork.switch3.eth[1].mac.queue queueingTime:vector ETV
attr interpolationmode none
attr source queueingTime(packetPopped)
attr title "queueing times, vector"
attr unit s
vector 167 SolutionNetwork.switch3.eth[2].mac packetReceivedFromUpper:vector(packetBytes) ETV
attr interpolationmode none
attr source packetReceivedFromUpper
attr title "packet bytes from higher layer, vector(packetBytes)"
vector 168 SolutionNetwork.switch3.eth[2].mac.queue packetPushed:vector(packetBytes) ETV
attr interpolationmode none
attr title "packet pushed, vector(packetBytes)"
vector 169 SolutionNetwork.switch3.eth[2].mac.queue queueLength:vector ETV
attr interpolationmode sample-hold
attr source "count(packetPushed) - count(packetPopped) - count(packetRemoved) - count(packetDropped)"
attr title "queue length, vector"
vector 170 SolutionNetwork.switch3.eth[2].mac.queue packetPopped:vector(packetBytes) ETV
attr interpolationmode none
attr title "packet popped, vector(packetBytes)"
vector 171 SolutionNetwork.switch3.eth[2].mac.queue queueingTime:vector ETV
attr interpolationmode none
attr source queueingTime(packetPopped)
attr title "queueing times, vector"
attr unit s
vector 172 SolutionNetwork.switch3.eth[0].mac packetReceivedFromUpper:vector(packetBytes) ETV
attr interpolationmode none
attr source packetReceivedFromUpper
attr title "packet bytes from higher layer, vector(packetBytes)"
vector 173 SolutionNetwork.switch3.eth[0].mac.queue packetPushed:vector(packetBytes) ETV
attr interpolationmode none
attr title "packet pushed, vector(packetBytes)"
vector 174 SolutionNetwork.switch3.eth[0].mac.queue queueLength:vector ETV
attr interpolationmode sample-hold
attr source "count(packetPushed) - count(packetPopped) - count(packetRemoved) - count(packetDropped)"
attr title "queue length, vector"
vector 175 SolutionNetwork.switch3.eth[0].mac.queue packetPopped:vector(packetBytes) ETV
attr interpolationmode none
attr title "packet popped, vector(packetBytes)"
vector 176 SolutionNetwork.switch3.eth[0].mac.queue queueingTime:vector ETV
attr interpolationmode none
attr source queueingTime(packetPopped)
attr title "queueing times, vector"
attr unit s
vector 177 SolutionNetwork.switch6.eth[0].mac packetReceivedFromUpper:vector(packetBytes) ETV
attr interpolationmode none
attr source packetReceivedFromUpper
attr title "packet bytes from higher layer, vector(packetBytes)"
vector 178 SolutionNetwork.switch6.eth[0].mac.queue packetPushed:vector(packetBytes) ETV
attr interpolationmode none
attr title "packet pushed, vector(packetBytes)"
vector 179 SolutionNetwork.switch6.eth[0].mac.queue queueLength:vector ETV
attr interpolationmode sample-hold
attr source "count(packetPushed) - count(packetPopped) - count(packetRemoved) - count(packetDropped)"
attr title "queue length, vector"
vector 180 SolutionNetwork.switch6.eth[0].mac.queue packetPopped:vector(packetBytes) ETV
attr interpolationmode none
attr title "packet popped, vector(packetBytes)"
vector 181 SolutionNetwork.switch6.eth[0].mac.queue queueingTime:vector ETV
attr interpolationmode none
attr source queueingTime(packetPopped)
attr title "queueing times, vector"
attr unit s
vector 182 SolutionNetwork.switch5.eth[0].mac packetReceivedFromUpper:vector(packetBytes) ETV
attr interpolationmode none
attr source packetReceivedFromUpper
attr title "packet bytes from higher layer, vector(packetBytes)"
vector 183 SolutionNetwork.switch5.eth[0].mac.queue packetPushed:vector(packetBytes) ETV
attr interpolationmode none
attr title "packet pushed, vector(packetBytes)"
vector 184 SolutionNetwork.switch5.eth[0].mac.queue queueLength:vector ETV
attr interpolationmode sample-hold
attr source "count(packetPushed) - count(packetPopped) - count(packetRemoved) - count(packetDropped)"
attr title "queue length, vector"
vector 185 SolutionNetwork.switch5.eth[0].mac.queue packetPopped:vector(packetBytes) ETV
attr interpolationmode none
attr title "packet popped, vector(packetBytes)"
vector 186 SolutionNetwork.switch5.eth[0].mac.queue queueingTime:vector ETV
attr interpolationmode none
attr source queueingTime(packetPopped)
attr title "queueing times, vector"
attr unit s
vector 187 SolutionNetwork.switch7.eth[1].mac packetReceivedFromUpper:vector(packetBytes) ETV
attr interpolationmode none
attr source packetReceivedFromUpper
attr title "packet bytes from higher layer, vector(packetBytes)"
vector 188 SolutionNetwork.switch7.eth[1].mac.queue packetPushed:vector(packetBytes) ETV
attr interpolationmode none
attr title "packet pushed, vector(packetBytes)"
vector 189 SolutionNetwork.switch7.eth[1].mac.queue queueLength:vector ETV
attr interpolationmode sample-hold
attr source "count(packetPushed) - count(packetPopped) - count(packetRemoved) - count(packetDropped)"
attr title "queue length, vector"
vector 190 SolutionNetwork.switch7.eth[1].mac.queue packetPopped:vector(packetBytes) ETV
attr interpolationmode none
attr title "packet popped, vector(packetBytes)"
vector 191 SolutionNetwork.switch7.eth[1].mac.queue queueingTime:vector ETV
attr interpolationmode none
attr source queueingTime(packetPopped)
attr title "queueing times, vector"
attr unit s
vector 192 SolutionNetwork.switch8.eth[1].mac packetReceivedFromUpper:vector(packetBytes) ETV
attr interpolationmode none
attr source packetReceivedFromUpper
attr title "packet bytes from higher layer, vector(packetBytes)"
vector 193 SolutionNetwork.switch8.eth[1].mac.queue packetPushed:vector(packetBytes) ETV
attr interpolationmode none
attr title "packet pushed, vector(packetBytes)"
vector 194 SolutionNetwork.switch8.eth[1].mac.queue queueLength:vector ETV
attr interpolationmode sample-hold
attr source "count(packetPushed) - count(packetPopped) - count(packetRemoved) - count(packetDropped)"
attr title "queue length, vector"
vector 195 SolutionNetwork.switch8.eth[1].mac.queue packetPopped:vector(packetBytes) ETV
attr interpolationmode none
attr title "packet popped, vector(packetBytes)"
vector 196 SolutionNetwork.switch8.eth[1].mac.queue queueingTime:vector ETV
attr interpolationmode none
attr source queueingTime(packetPopped)
attr title "queueing times, vector"
attr unit s
vector 197 SolutionNetwork.switch9.eth[0].mac packetReceivedFromUpper:vector(packetBytes) ETV
attr interpolationmode none
attr source packetReceivedFromUpper
attr title "packet bytes from higher layer, vector(packetBytes)"
vector 198 SolutionNetwork.switch9.eth[0].mac.queue packetPushed:vector(packetBytes) ETV
attr interpolationmode none
attr title "packet pushed, vector(packetBytes)"
vector 199 SolutionNetwork.switch9.eth[0].mac.queue queueLength:vector ETV
attr interpolationmode sample-hold
attr source "count(packetPushed) - count(packetPopped) - count(packetRemoved) - count(packetDropped)"
attr title "queue length, vector"
vector 200 SolutionNetwork.switch9.eth[0].mac.queue packetPopped:vector(packetBytes) ETV
attr interpolationmode none
attr title "packet popped, vector(packetBytes)"
vector 201 SolutionNetwork.switch9.eth[0].mac.queue queueingTime:vector ETV
attr interpolationmode none
attr source queueingTime(packetPopped)
attr title "queueing times, vector"
attr unit s
vector 202 SolutionNetwork.switch11.eth[1].mac packetReceivedFromUpper:vector(packetBytes) ETV
attr interpolationmode none
attr source packetReceivedFromUpper
attr title "packet bytes from higher layer, vector(packetBytes)"
vector 203 SolutionNetwork.switch11.eth[1].mac.queue packetPushed:vector(packetBytes) ETV
attr interpolationmode none
attr title "packet pushed, vector(packetBytes)"
vector 204 SolutionNetwork.switch11.eth[1].mac.queue queueLength:vector ETV
attr interpolationmode sample-hold
attr source "count(packetPushed) - count(packetPopped) - count(packetRemoved) - count(packetDropped)"
attr title "queue length, vector"
vector 205 SolutionNetwork.switch11.eth[1].mac.queue packetPopped:vector(packetBytes) ETV
attr interpolationmode none
attr title "packet popped, vector(packetBytes)"
vector 206 SolutionNetwork.switch11.eth[1].mac.queue queueingTime:vector ETV
attr interpolationmode none
attr source queueingTime(packetPopped)
attr title "queueing times, vector"
attr unit s
vector 207 SolutionNetwork.switch12.eth[1].mac packetReceivedFromUpper:vector(packetBytes) ETV
attr interpolationmode none
attr source packetReceivedFromUpper
attr title "packet bytes from higher layer, vector(packetBytes)"
vector 208 SolutionNetwork.switch12.eth[1].mac.queue packetPushed:vector(packetBytes) ETV
attr interpolationmode none
attr title "packet pushed, vector(packetBytes)"
vector 209 SolutionNetwork.switch12.eth[1].mac.queue queueLength:vector ETV
attr interpolationmode sample-hold
attr source "count(packetPushed) - count(packetPopped) - count(packetRemoved) - count(packetDropped)"
attr title "queue length, vector"
vector 210 SolutionNetwork.switch12.eth[1].mac.queue packetPopped:vector(packetBytes) ETV
attr interpolationmode none
attr title "packet popped, vector(packetBytes)"
vector 211 SolutionNetwork.switch12.eth[1].mac.queue queueingTime:vector ETV
attr interpolationmode none
attr source queueingTime(packetPopped)
attr title "queueing times, vector"
attr unit s
vector 212 SolutionNetwork.switch17.eth[1].mac packetReceivedFromUpper:vector(packetBytes) ETV
attr interpolationmode none
attr source packetReceivedFromUpper
attr title "packet bytes from higher layer, vector(packetBytes)"
vector 213 SolutionNetwork.switch17.eth[1].mac.queue packetPushed:vector(packetBytes) ETV
attr interpolationmode none
attr title "packet pushed, vector(packetBytes)"
vector 214 SolutionNetwork.switch17.eth[1].mac.queue queueLength:vector ETV
attr interpolationmode sample-hold
attr source "count(packetPushed) - count(packetPopped) - count(packetRemoved) - count(packetDropped)"
attr title "queue length, vector"
vector 215 SolutionNetwork.switch17.eth[1].mac.queue packetPopped:vector(packetBytes) ETV
attr interpolationmode none
attr title "packet popped, vector(packetBytes)"
vector 216 SolutionNetwork.switch17.eth[1].mac.queue queueingTime:vector ETV
attr interpolationmode none
attr source queueingTime(packetPopped)
attr title "queueing times, vector"
attr unit s
vector 217 SolutionNetwork.switch18.eth[0].mac packetReceivedFromUpper:vector(packetBytes) ETV
attr interpolationmode none
attr source packetReceivedFromUpper
attr title "packet bytes from higher layer, vector(packetBytes)"
vector 218 SolutionNetwork.switch18.eth[0].mac.queue packetPushed:vector(packetBytes) ETV
attr interpolationmode none
attr title "packet pushed, vector(packetBytes)"
vector 219 SolutionNetwork.switch18.eth[0].mac.queue queueLength:vector ETV
attr interpolationmode sample-hold
attr source "count(packetPushed) - count(packetPopped) - count(packetRemoved) - count(packetDropped)"
attr title "queue length, vector"
vector 220 SolutionNetwork.switch18.eth[0].mac.queue packetPopped:vector(packetBytes) ETV
attr interpolationmode none
attr title "packet popped, vector(packetBytes)"
vector 221 SolutionNetwork.switch18.eth[0].mac.queue queueingTime:vector ETV
attr interpolationmode none
attr source queueingTime(packetPopped)
attr title "queueing times, vector"
attr unit s
vector 222 SolutionNetwork.switch16.eth[1].mac packetReceivedFromUpper:vector(packetBytes) ETV
attr interpolationmode none
attr source packetReceivedFromUpper
attr title "packet bytes from higher layer, vector(packetBytes)"
vector 223 SolutionNetwork.switch16.eth[1].mac.queue packetPushed:vector(packetBytes) ETV
attr interpolationmode none
attr title "packet pushed, vector(packetBytes)"
vector 224 SolutionNetwork.switch16.eth[1].mac.queue queueLength:vector ETV
attr interpolationmode sample-hold
attr source "count(packetPushed) - count(packetPopped) - count(packetRemoved) - count(packetDropped)"
attr title "queue length, vector"
vector 225 SolutionNetwork.switch16.eth[1].mac.queue packetPopped:vector(packetBytes) ETV
attr interpolationmode none
attr title "packet popped, vector(packetBytes)"
vector 226 SolutionNetwork.switch16.eth[1].mac.queue queueingTime:vector ETV
attr interpolationmode none
attr source queueingTime(packetPopped)
attr title "queueing times, vector"
attr unit s
vector 227 SolutionNetwork.ES7.srv packetReceived:vector(packetBytes) ETV
attr interpolationmode none
attr source packetReceived
attr title "packets received, vector(packetBytes)"
vector 228 SolutionNetwork.ES7.srv packetSent:vector(packetBytes) ETV
attr interpolationmode none
attr source packetSent
attr title "packets sent, vector(packetBytes)"
vector 229 SolutionNetwork.ES7.llc encapPk:vector(packetBytes) ETV
attr interpolationmode none
attr source encapPk
attr title "packets encapsulated, vector(packetBytes)"
vector 230 SolutionNetwork.ES7.eth.mac packetReceivedFromUpper:vector(packetBytes) ETV
attr interpolationmode none
attr source packetReceivedFromUpper
attr title "packet bytes from higher layer, vector(packetBytes)"
vector 231 SolutionNetwork.ES7.eth.mac.queue packetPushed:vector(packetBytes) ETV
attr interpolationmode none
attr title "packet pushed, vector(packetBytes)"
vector 232 SolutionNetwork.ES7.eth.mac.queue queueLength:vector ETV
attr interpolationmode sample-hold
attr source "count(packetPushed) - count(packetPopped) - count(packetRemoved) - count(packetDropped)"
attr title "queue length, vector"
vector 233 SolutionNetwork.ES7.eth.mac.queue packetPopped:vector(packetBytes) ETV
attr interpolationmode none
attr title "packet popped, vector(packetBytes)"
vector 234 SolutionNetwork.ES7.eth.mac.queue queueingTime:vector ETV
attr interpolationmode none
attr source queueingTime(packetPopped)
attr title "queueing times, vector"
attr unit s
vector 235 SolutionNetwork.switch2.eth[1].mac txPk:vector(packetBytes) ETV
attr interpolationmode none
attr source packetSentToLower
attr title "packets transmitted, vector(packetBytes)"
vector 236 SolutionNetwork.switch3.eth[1].mac txPk:vector(packetBytes) ETV
attr interpolationmode none
attr source packetSentToLower
attr title "packets transmitted, vector(packetBytes)"
vector 237 SolutionNetwork.switch6.eth[0].mac txPk:vector(packetBytes) ETV
attr interpolationmode none
attr source packetSentToLower
attr title "packets transmitted, vector(packetBytes)"
vector 238 SolutionNetwork.switch5.eth[0].mac txPk:vector(packetBytes) ETV
attr interpolationmode none
attr source packetSentToLower
attr title "packets transmitted, vector(packetBytes)"
vector 239 SolutionNetwork.switch7.eth[1].mac txPk:vector(packetBytes) ETV
attr interpolationmode none
attr source packetSentToLower
attr title "packets transmitted, vector(packetBytes)"
vector 240 SolutionNetwork.switch8.eth[1].mac txPk:vector(packetBytes) ETV
attr interpolationmode none
attr source packetSentToLower
attr title "packets transmitted, vector(packetBytes)"
vector 241 SolutionNetwork.switch9.eth[0].mac txPk:vector(packetBytes) ETV
attr interpolationmode none
attr source packetSentToLower
attr title "packets transmitted, vector(packetBytes)"
vector 242 SolutionNetwork.switch11.eth[1].mac txPk:vector(packetBytes) ETV
attr interpolationmode none
attr source packetSentToLower
attr title "packets transmitted, vector(packetBytes)"
vector 243 SolutionNetwork.switch12.eth[1].mac txPk:vector(packetBytes) ETV
attr interpolationmode none
attr source packetSentToLower
attr title "packets transmitted, vector(packetBytes)"
vector 244 SolutionNetwork.switch17.eth[1].mac txPk:vector(packetBytes) ETV
attr interpolationmode none
attr source packetSentToLower
attr title "packets transmitted, vector(packetBytes)"
vector 245 SolutionNetwork.switch18.eth[0].mac txPk:vector(packetBytes) ETV
attr interpolationmode none
attr source packetSentToLower
attr title "packets transmitted, vector(packetBytes)"
vector 246 SolutionNetwork.switch16.eth[1].mac txPk:vector(packetBytes) ETV
attr interpolationmode none
attr source packetSentToLower
attr title "packets transmitted, vector(packetBytes)"
vector 247 SolutionNetwork.switch3.eth[0].mac txPk:vector(packetBytes) ETV
attr interpolationmode none
attr source packetSentToLower
attr title "packets transmitted, vector(packetBytes)"
vector 248 SolutionNetwork.switch3.eth[2].mac txPk:vector(packetBytes) ETV
attr interpolationmode none
attr source packetSentToLower
attr title "packets transmitted, vector(packetBytes)"
vector 249 SolutionNetwork.ES7.eth.mac txPk:vector(packetBytes) ETV
attr interpolationmode none
attr source packetSentToLower
attr title "packets transmitted, vector(packetBytes)"
vector 250 SolutionNetwork.ES0.eth.mac rxPkOk:vector(packetBytes) ETV
attr interpolationmode none
attr source rxPkOk
attr title "packets received OK, vector(packetBytes)"
vector 251 SolutionNetwork.ES0.eth.mac passedUpPk:vector(packetBytes) ETV
attr interpolationmode none
attr source packetSentToUpper
attr title "packets passed to higher layer, vector(packetBytes)"
vector 252 SolutionNetwork.switch4.eth[0].mac rxPkOk:vector(packetBytes) ETV
attr interpolationmode none
attr source rxPkOk
attr title "packets received OK, vector(packetBytes)"
vector 253 SolutionNetwork.switch4.eth[0].mac passedUpPk:vector(packetBytes) ETV
attr interpolationmode none
attr source packetSentToUpper
attr title "packets passed to higher layer, vector(packetBytes)"
vector 254 SolutionNetwork.rsu[2].eth.mac rxPkOk:vector(packetBytes) ETV
attr interpolationmode none
attr source rxPkOk
attr title "packets received OK, vector(packetBytes)"
vector 255 SolutionNetwork.rsu[2].eth.mac passedUpPk:vector(packetBytes) ETV
attr interpolationmode none
attr source packetSentToUpper
attr title "packets passed to higher layer, vector(packetBytes)"
vector 256 SolutionNetwork.rsu[1].eth.mac rxPkOk:vector(packetBytes) ETV
attr interpolationmode none
attr source rxPkOk
attr title "packets received OK, vector(packetBytes)"
vector 257 SolutionNetwork.rsu[1].eth.mac passedUpPk:vector(packetBytes) ETV
attr interpolationmode none
attr source packetSentToUpper
attr title "packets passed to higher layer, vector(packetBytes)"
vector 258 SolutionNetwork.ES2.eth.mac rxPkOk:vector(packetBytes) ETV
attr interpolationmode none
attr source rxPkOk
attr title "packets received OK, vector(packetBytes)"
vector 259 SolutionNetwork.ES2.eth.mac passedUpPk:vector(packetBytes) ETV
attr interpolationmode none
attr source packetSentToUpper
attr title "packets passed to higher layer, vector(packetBytes)"
vector 260 SolutionNetwork.switch9.eth[0].mac rxPkOk:vector(packetBytes) ETV
attr interpolationmode none
attr source rxPkOk
attr title "packets received OK, vector(packetBytes)"
vector 261 SolutionNetwork.switch9.eth[0].mac passedUpPk:vector(packetBytes) ETV
attr interpolationmode none
attr source packetSentToUpper
attr title "packets passed to higher layer, vector(packetBytes)"
vector 262 SolutionNetwork.switch8.eth[1].mac rxPkOk:vector(packetBytes) ETV
attr interpolationmode none
attr source rxPkOk
attr title "packets received OK, vector(packetBytes)"
vector 263 SolutionNetwork.switch8.eth[1].mac passedUpPk:vector(packetBytes) ETV
attr interpolationmode none
attr source packetSentToUpper
attr title "packets passed to higher layer, vector(packetBytes)"
vector 264 SolutionNetwork.ES3.eth.mac rxPkOk:vector(packetBytes) ETV
attr interpolationmode none
attr source rxPkOk
attr title "packets received OK, vector(packetBytes)"
vector 265 SolutionNetwork.ES3.eth.mac passedUpPk:vector(packetBytes) ETV
attr interpolationmode none
attr source packetSentToUpper
attr title "packets passed to higher layer, vector(packetBytes)"
vector 266 SolutionNetwork.switch13.eth[0].mac rxPkOk:vector(packetBytes) ETV
attr interpolationmode none
attr source rxPkOk
attr title "packets received OK, vector(packetBytes)"
vector 267 SolutionNetwork.switch13.eth[0].mac passedUpPk:vector(packetBytes) ETV
attr interpolationmode none
attr source packetSentToUpper
attr title "packets passed to higher layer, vector(packetBytes)"
vector 268 SolutionNetwork.switch18.eth[0].mac rxPkOk:vector(packetBytes) ETV
attr interpolationmode none
attr source rxPkOk
attr title "packets received OK, vector(packetBytes)"
vector 269 SolutionNetwork.switch18.eth[0].mac passedUpPk:vector(packetBytes) ETV
attr interpolationmode none
attr source packetSentToUpper
attr title "packets passed to higher layer, vector(packetBytes)"
vector 270 SolutionNetwork.switch17.eth[1].mac rxPkOk:vector(packetBytes) ETV
attr interpolationmode none
attr source rxPkOk
attr title "packets received OK, vector(packetBytes)"
vector 271 SolutionNetwork.switch17.eth[1].mac passedUpPk:vector(packetBytes) ETV
attr interpolationmode none
attr source packetSentToUpper
attr title "packets passed to higher layer, vector(packetBytes)"
vector 272 SolutionNetwork.ES6.eth.mac rxPkOk:vector(packetBytes) ETV
attr interpolationmode none
attr source rxPkOk
attr title "packets received OK, vector(packetBytes)"
vector 273 SolutionNetwork.ES6.eth.mac passedUpPk:vector(packetBytes) ETV
attr interpolationmode none
attr source packetSentToUpper
attr title "packets passed to higher layer, vector(packetBytes)"
vector 274 SolutionNetwork.ES0.srv packetReceived:vector(packetBytes) ETV
attr interpolationmode none
attr source packetReceived
attr title "packets received, vector(packetBytes)"
vector 275 SolutionNetwork.ES0.srv packetSent:vector(packetBytes) ETV
attr interpolationmode none
attr source packetSent
attr title "packets sent, vector(packetBytes)"
vector 276 SolutionNetwork.switch4.eth[1].mac packetReceivedFromUpper:vector(packetBytes) ETV
attr interpolationmode none
attr source packetReceivedFromUpper
attr title "packet bytes from higher layer, vector(packetBytes)"
vector 277 SolutionNetwork.switch4.eth[1].mac.queue packetPushed:vector(packetBytes) ETV
attr interpolationmode none
attr title "packet pushed, vector(packetBytes)"
vector 278 SolutionNetwork.switch4.eth[1].mac.queue queueLength:vector ETV
attr interpolationmode sample-hold
attr source "count(packetPushed) - count(packetPopped) - count(packetRemoved) - count(packetDropped)"
attr title "queue length, vector"
vector 279 SolutionNetwork.switch4.eth[1].mac.queue packetPopped:vector(packetBytes) ETV
attr interpolationmode none
attr title "packet popped, vector(packetBytes)"
vector 280 SolutionNetwork.switch4.eth[1].mac.queue queueingTime:vector ETV
attr interpolationmode none
attr source queueingTime(packetPopped)
attr title "queueing times, vector"
attr unit s
vector 281 SolutionNetwork.ES2.srv packetReceived:vector(packetBytes) ETV
attr interpolationmode none
attr source packetReceived
attr title "packets received, vector(packetBytes)"
vector 282 SolutionNetwork.ES2.srv packetSent:vector(packetBytes) ETV
attr interpolationmode none
attr source packetSent
attr title "packets sent, vector(packetBytes)"
vector 283 SolutionNetwork.switch9.eth[1].mac packetReceivedFromUpper:vector(packetBytes) ETV
attr interpolationmode none
attr source packetReceivedFromUpper
attr title "packet bytes from higher layer, vector(packetBytes)"
vector 284 SolutionNetwork.switch9.eth[1].mac.queue packetPushed:vector(packetBytes) ETV
attr interpolationmode none
attr title "packet pushed, vector(packetBytes)"
vector 285 SolutionNetwork.switch9.eth[1].mac.queue queueLength:vector ETV
attr interpolationmode sample-hold
attr source "count(packetPushed) - count(packetPopped) - count(packetRemoved) - count(packetDropped)"
attr title "queue length, vector"
vector 286 SolutionNetwork.switch9.eth[1].mac.queue packetPopped:vector(packetBytes) ETV
attr interpolationmode none
attr title "packet popped, vector(packetBytes)"
vector 287 SolutionNetwork.switch9.eth[1].mac.queue queueingTime:vector ETV
attr interpolationmode none
attr source queueingTime(packetPopped)
attr title "queueing times, vector"
attr unit s
vector 288 SolutionNetwork.switch8.eth[0].mac packetReceivedFromUpper:vector(packetBytes) ETV
attr interpolationmode none
attr source packetReceivedFromUpper
attr title "packet bytes from higher layer, vector(packetBytes)"
vector 289 SolutionNetwork.switch8.eth[0].mac.queue packetPushed:vector(packetBytes) ETV
attr interpolationmode none
attr title "packet pushed, vector(packetBytes)"
vector 290 SolutionNetwork.switch8.eth[0].mac.queue queueLength:vector ETV
attr interpolationmode sample-hold
attr source "count(packetPushed) - count(packetPopped) - count(packetRemoved) - count(packetDropped)"
attr title "queue length, vector"
vector 291 SolutionNetwork.switch8.eth[0].mac.queue packetPopped:vector(packetBytes) ETV
attr interpolationmode none
attr title "packet popped, vector(packetBytes)"
vector 292 SolutionNetwork.switch8.eth[0].mac.queue queueingTime:vector ETV
attr interpolationmode none
attr source queueingTime(packetPopped)
attr title "queueing times, vector"
attr unit s
vector 293 SolutionNetwork.ES3.srv packetReceived:vector(packetBytes) ETV
attr interpolationmode none
attr source packetReceived
attr title "packets received, vector(packetBytes)"
vector 294 SolutionNetwork.ES3.srv packetSent:vector(packetBytes) ETV
attr interpolationmode none
attr source packetSent
attr title "packets sent, vector(packetBytes)"
vector 295 SolutionNetwork.switch13.eth[1].mac packetReceivedFromUpper:vector(packetBytes) ETV
attr interpolationmode none
attr source packetReceivedFromUpper
attr title "packet bytes from higher layer, vector(packetBytes)"
vector 296 SolutionNetwork.switch13.eth[1].mac.queue packetPushed:vector(packetBytes) ETV
attr interpolationmode none
attr title "packet pushed, vector(packetBytes)"
vector 297 SolutionNetwork.switch13.eth[1].mac.queue queueLength:vector ETV
attr interpolationmode sample-hold
attr source "count(packetPushed) - count(packetPopped) - count(packetRemoved) - count(packetDropped)"
attr title "queue length, vector"
vector 298 SolutionNetwork.switch13.eth[1].mac.queue packetPopped:vector(packetBytes) ETV
attr interpolationmode none
attr title "packet popped, vector(packetBytes)"
vector 299 SolutionNetwork.switch13.eth[1].mac.queue queueingTime:vector ETV
attr interpolationmode none
attr source queueingTime(packetPopped)
attr title "queueing times, vector"
attr unit s
vector 300 SolutionNetwork.switch13.eth[2].mac packetReceivedFromUpper:vector(packetBytes) ETV
attr interpolationmode none
attr source packetReceivedFromUpper
attr title "packet bytes from higher layer, vector(packetBytes)"
vector 301 SolutionNetwork.switch13.eth[2].mac.queue packetPushed:vector(packetBytes) ETV
attr interpolationmode none
attr title "packet pushed, vector(packetBytes)"
vector 302 SolutionNetwork.switch13.eth[2].mac.queue queueLength:vector ETV
attr interpolationmode sample-hold
attr source "count(packetPushed) - count(packetPopped) - count(packetRemoved) - count(packetDropped)"
attr title "queue length, vector"
vector 303 SolutionNetwork.switch13.eth[2].mac.queue packetPopped:vector(packetBytes) ETV
attr interpolationmode none
attr title "packet popped, vector(packetBytes)"
vector 304 SolutionNetwork.switch13.eth[2].mac.queue queueingTime:vector ETV
attr interpolationmode none
attr source queueingTime(packetPopped)
attr title "queueing times, vector"
attr unit s
vector 305 SolutionNetwork.switch18.eth[1].mac packetReceivedFromUpper:vector(packetBytes) ETV
attr interpolationmode none
attr source packetReceivedFromUpper
attr title "packet bytes from higher layer, vector(packetBytes)"
vector 306 SolutionNetwork.switch18.eth[1].mac.queue packetPushed:vector(packetBytes) ETV
attr interpolationmode none
attr title "packet pushed, vector(packetBytes)"
vector 307 SolutionNetwork.switch18.eth[1].mac.queue queueLength:vector ETV
attr interpolationmode sample-hold
attr source "count(packetPushed) - count(packetPopped) - count(packetRemoved) - count(packetDropped)"
attr title "queue length, vector"
vector 308 SolutionNetwork.switch18.eth[1].mac.queue packetPopped:vector(packetBytes) ETV
attr interpolationmode none
attr title "packet popped, vector(packetBytes)"
vector 309 SolutionNetwork.switch18.eth[1].mac.queue queueingTime:vector ETV
attr interpolationmode none
attr source queueingTime(packetPopped)
attr title "queueing times, vector"
attr unit s
vector 310 SolutionNetwork.switch17.eth[0].mac packetReceivedFromUpper:vector(packetBytes) ETV
attr interpolationmode none
attr source packetReceivedFromUpper
attr title "packet bytes from higher layer, vector(packetBytes)"
vector 311 SolutionNetwork.switch17.eth[0].mac.queue packetPushed:vector(packetBytes) ETV
attr interpolationmode none
attr title "packet pushed, vector(packetBytes)"
vector 312 SolutionNetwork.switch17.eth[0].mac.queue queueLength:vector ETV
attr interpolationmode sample-hold
attr source "count(packetPushed) - count(packetPopped) - count(packetRemoved) - count(packetDropped)"
attr title "queue length, vector"
vector 313 SolutionNetwork.switch17.eth[0].mac.queue packetPopped:vector(packetBytes) ETV
attr interpolationmode none
attr title "packet popped, vector(packetBytes)"
vector 314 SolutionNetwork.switch17.eth[0].mac.queue queueingTime:vector ETV
attr interpolationmode none
attr source queueingTime(packetPopped)
attr title "queueing times, vector"
attr unit s
vector 315 SolutionNetwork.ES6.srv packetReceived:vector(packetBytes) ETV
attr interpolationmode none
attr source packetReceived
attr title "packets received, vector(packetBytes)"
vector 316 SolutionNetwork.ES6.srv packetSent:vector(packetBytes) ETV
attr interpolationmode none
attr source packetSent
attr title "packets sent, vector(packetBytes)"
vector 317 SolutionNetwork.ES0.llc encapPk:vector(packetBytes) ETV
attr interpolationmode none
attr source encapPk
attr title "packets encapsulated, vector(packetBytes)"
vector 318 SolutionNetwork.ES2.llc encapPk:vector(packetBytes) ETV
attr interpolationmode none
attr source encapPk
attr title "packets encapsulated, vector(packetBytes)"
vector 319 SolutionNetwork.ES3.llc encapPk:vector(packetBytes) ETV
attr interpolationmode none
attr source encapPk
attr title "packets encapsulated, vector(packetBytes)"
vector 320 SolutionNetwork.ES6.llc encapPk:vector(packetBytes) ETV
attr interpolationmode none
attr source encapPk
attr title "packets encapsulated, vector(packetBytes)"
vector 321 SolutionNetwork.ES0.eth.mac packetReceivedFromUpper:vector(packetBytes) ETV
attr interpolationmode none
attr source packetReceivedFromUpper
attr title "packet bytes from higher layer, vector(packetBytes)"
vector 322 SolutionNetwork.ES0.eth.mac.queue packetPushed:vector(packetBytes) ETV
attr interpolationmode none
attr title "packet pushed, vector(packetBytes)"
vector 323 SolutionNetwork.ES0.eth.mac.queue queueLength:vector ETV
attr interpolationmode sample-hold
attr source "count(packetPushed) - count(packetPopped) - count(packetRemoved) - count(packetDropped)"
attr title "queue length, vector"
vector 324 SolutionNetwork.ES0.eth.mac.queue packetPopped:vector(packetBytes) ETV
attr interpolationmode none
attr title "packet popped, vector(packetBytes)"
vector 325 SolutionNetwork.ES0.eth.mac.queue queueingTime:vector ETV
attr interpolationmode none
attr source queueingTime(packetPopped)
attr title "queueing times, vector"
attr unit s
vector 326 SolutionNetwork.ES2.eth.mac packetReceivedFromUpper:vector(packetBytes) ETV
attr interpolationmode none
attr source packetReceivedFromUpper
attr title "packet bytes from higher layer, vector(packetBytes)"
vector 327 SolutionNetwork.ES2.eth.mac.queue packetPushed:vector(packetBytes) ETV
attr interpolationmode none
attr title "packet pushed, vector(packetBytes)"
vector 328 SolutionNetwork.ES2.eth.mac.queue queueLength:vector ETV
attr interpolationmode sample-hold
attr source "count(packetPushed) - count(packetPopped) - count(packetRemoved) - count(packetDropped)"
attr title "queue length, vector"
vector 329 SolutionNetwork.ES2.eth.mac.queue packetPopped:vector(packetBytes) ETV
attr interpolationmode none
attr title "packet popped, vector(packetBytes)"
vector 330 SolutionNetwork.ES2.eth.mac.queue queueingTime:vector ETV
attr interpolationmode none
attr source queueingTime(packetPopped)
attr title "queueing times, vector"
attr unit s
vector 331 SolutionNetwork.ES3.eth.mac packetReceivedFromUpper:vector(packetBytes) ETV
attr interpolationmode none
attr source packetReceivedFromUpper
attr title "packet bytes from higher layer, vector(packetBytes)"
vector 332 SolutionNetwork.ES3.eth.mac.queue packetPushed:vector(packetBytes) ETV
attr interpolationmode none
attr title "packet pushed, vector(packetBytes)"
vector 333 SolutionNetwork.ES3.eth.mac.queue queueLength:vector ETV
attr interpolationmode sample-hold
attr source "count(packetPushed) - count(packetPopped) - count(packetRemoved) - count(packetDropped)"
attr title "queue length, vector"
vector 334 SolutionNetwork.ES3.eth.mac.queue packetPopped:vector(packetBytes) ETV
attr interpolationmode none
attr title "packet popped, vector(packetBytes)"
vector 335 SolutionNetwork.ES3.eth.mac.queue queueingTime:vector ETV
attr interpolationmode none
attr source queueingTime(packetPopped)
attr title "queueing times, vector"
attr unit s
vector 336 SolutionNetwork.ES6.eth.mac packetReceivedFromUpper:vector(packetBytes) ETV
attr interpolationmode none
attr source packetReceivedFromUpper
attr title "packet bytes from higher layer, vector(packetBytes)"
vector 337 SolutionNetwork.ES6.eth.mac.queue packetPushed:vector(packetBytes) ETV
attr interpolationmode none
attr title "packet pushed, vector(packetBytes)"
vector 338 SolutionNetwork.ES6.eth.mac.queue queueLength:vector ETV
attr interpolationmode sample-hold
attr source "count(packetPushed) - count(packetPopped) - count(packetRemoved) - count(packetDropped)"
attr title "queue length, vector"
vector 339 SolutionNetwork.ES6.eth.mac.queue packetPopped:vector(packetBytes) ETV
attr interpolationmode none
attr title "packet popped, vector(packetBytes)"
vector 340 SolutionNetwork.ES6.eth.mac.queue queueingTime:vector ETV
attr interpolationmode none
attr source queueingTime(packetPopped)
attr title "queueing times, vector"
attr unit s
vector 341 SolutionNetwork.switch1.eth[2].mac rxPkOk:vector(packetBytes) ETV
attr interpolationmode none
attr source rxPkOk
attr title "packets received OK, vector(packetBytes)"
vector 342 SolutionNetwork.switch1.eth[2].mac passedUpPk:vector(packetBytes) ETV
attr interpolationmode none
attr source packetSentToUpper
attr title "packets passed to higher layer, vector(packetBytes)"
vector 343 SolutionNetwork.switch5.eth[1].mac rxPkOk:vector(packetBytes) ETV
attr interpolationmode none
attr source rxPkOk
attr title "packets received OK, vector(packetBytes)"
vector 344 SolutionNetwork.switch5.eth[1].mac passedUpPk:vector(packetBytes) ETV
attr interpolationmode none
attr source packetSentToUpper
attr title "packets passed to higher layer, vector(packetBytes)"
vector 345 SolutionNetwork.switch15.eth[2].mac rxPkOk:vector(packetBytes) ETV
attr interpolationmode none
attr source rxPkOk
attr title "packets received OK, vector(packetBytes)"
vector 346 SolutionNetwork.switch15.eth[2].mac passedUpPk:vector(packetBytes) ETV
attr interpolationmode none
attr source packetSentToUpper
attr title "packets passed to higher layer, vector(packetBytes)"
vector 347 SolutionNetwork.switch1.eth[0].mac packetReceivedFromUpper:vector(packetBytes) ETV
attr interpolationmode none
attr source packetReceivedFromUpper
attr title "packet bytes from higher layer, vector(packetBytes)"
vector 348 SolutionNetwork.switch1.eth[0].mac.queue packetPushed:vector(packetBytes) ETV
attr interpolationmode none
attr title "packet pushed, vector(packetBytes)"
vector 349 SolutionNetwork.switch1.eth[0].mac.queue queueLength:vector ETV
attr interpolationmode sample-hold
attr source "count(packetPushed) - count(packetPopped) - count(packetRemoved) - count(packetDropped)"
attr title "queue length, vector"
vector 350 SolutionNetwork.switch1.eth[0].mac.queue packetPopped:vector(packetBytes) ETV
attr interpolationmode none
attr title "packet popped, vector(packetBytes)"
vector 351 SolutionNetwork.switch1.eth[0].mac.queue queueingTime:vector ETV
attr interpolationmode none
attr source queueingTime(packetPopped)
attr title "queueing times, vector"
attr unit s
vector 352 SolutionNetwork.switch15.eth[3].mac packetReceivedFromUpper:vector(packetBytes) ETV
attr interpolationmode none
attr source packetReceivedFromUpper
attr title "packet bytes from higher layer, vector(packetBytes)"
vector 353 SolutionNetwork.switch15.eth[3].mac.queue packetPushed:vector(packetBytes) ETV
attr interpolationmode none
attr title "packet pushed, vector(packetBytes)"
vector 354 SolutionNetwork.switch15.eth[3].mac.queue queueLength:vector ETV
attr interpolationmode sample-hold
attr source "count(packetPushed) - count(packetPopped) - count(packetRemoved) - count(packetDropped)"
attr title "queue length, vector"
vector 355 SolutionNetwork.switch15.eth[3].mac.queue packetPopped:vector(packetBytes) ETV
attr interpolationmode none
attr title "packet popped, vector(packetBytes)"
vector 356 SolutionNetwork.switch15.eth[3].mac.queue queueingTime:vector ETV
attr interpolationmode none
attr source queueingTime(packetPopped)
attr title "queueing times, vector"
attr unit s
vector 357 SolutionNetwork.switch4.eth[1].mac txPk:vector(packetBytes) ETV
attr interpolationmode none
attr source packetSentToLower
attr title "packets transmitted, vector(packetBytes)"
vector 358 SolutionNetwork.switch9.eth[1].mac txPk:vector(packetBytes) ETV
attr interpolationmode none
attr source packetSentToLower
attr title "packets transmitted, vector(packetBytes)"
vector 359 SolutionNetwork.switch13.eth[1].mac txPk:vector(packetBytes) ETV
attr interpolationmode none
attr source packetSentToLower
attr title "packets transmitted, vector(packetBytes)"
vector 360 SolutionNetwork.switch13.eth[2].mac txPk:vector(packetBytes) ETV
attr interpolationmode none
attr source packetSentToLower
attr title "packets transmitted, vector(packetBytes)"
vector 361 SolutionNetwork.switch18.eth[1].mac txPk:vector(packetBytes) ETV
attr interpolationmode none
attr source packetSentToLower
attr title "packets transmitted, vector(packetBytes)"
vector 362 SolutionNetwork.switch17.eth[0].mac txPk:vector(packetBytes) ETV
attr interpolationmode none
attr source packetSentToLower
attr title "packets transmitted, vector(packetBytes)"
vector 363 SolutionNetwork.ES0.eth.mac txPk:vector(packetBytes) ETV
attr interpolationmode none
attr source packetSentToLower
attr title "packets transmitted, vector(packetBytes)"
vector 364 SolutionNetwork.switch8.eth[0].mac txPk:vector(packetBytes) ETV
attr interpolationmode none
attr source packetSentToLower
attr title "packets transmitted, vector(packetBytes)"
vector 365 SolutionNetwork.ES2.eth.mac txPk:vector(packetBytes) ETV
attr interpolationmode none
attr source packetSentToLower
attr title "packets transmitted, vector(packetBytes)"
vector 366 SolutionNetwork.ES3.eth.mac txPk:vector(packetBytes) ETV
attr interpolationmode none
attr source packetSentToLower
attr title "packets transmitted, vector(packetBytes)"
vector 367 SolutionNetwork.ES6.eth.mac txPk:vector(packetBytes) ETV
attr interpolationmode none
attr source packetSentToLower
attr title "packets transmitted, vector(packetBytes)"
vector 368 SolutionNetwork.switch1.eth[0].mac txPk:vector(packetBytes) ETV
attr interpolationmode none
attr source packetSentToLower
attr title "packets transmitted, vector(packetBytes)"
vector 369 SolutionNetwork.switch15.eth[3].mac txPk:vector(packetBytes) ETV
attr interpolationmode none
attr source packetSentToLower
attr title "packets transmitted, vector(packetBytes)"
vector 370 SolutionNetwork.ES1.eth.mac rxPkOk:vector(packetBytes) ETV
attr interpolationmode none
attr source rxPkOk
attr title "packets received OK, vector(packetBytes)"
vector 371 SolutionNetwork.ES1.eth.mac passedUpPk:vector(packetBytes) ETV
attr interpolationmode none
attr source packetSentToUpper
attr title "packets passed to higher layer, vector(packetBytes)"
vector 372 SolutionNetwork.switch10.eth[1].mac rxPkOk:vector(packetBytes) ETV
attr interpolationmode none
attr source rxPkOk
attr title "packets received OK, vector(packetBytes)"
vector 373 SolutionNetwork.switch10.eth[1].mac passedUpPk:vector(packetBytes) ETV
attr interpolationmode none
attr source packetSentToUpper
attr title "packets passed to higher layer, vector(packetBytes)"
vector 374 SolutionNetwork.ES4.eth.mac rxPkOk:vector(packetBytes) ETV
attr interpolationmode none
attr source rxPkOk
attr title "packets received OK, vector(packetBytes)"
vector 375 SolutionNetwork.ES4.eth.mac passedUpPk:vector(packetBytes) ETV
attr interpolationmode none
attr source packetSentToUpper
attr title "packets passed to higher layer, vector(packetBytes)"
vector 376 SolutionNetwork.switch14.eth[0].mac rxPkOk:vector(packetBytes) ETV
attr interpolationmode none
attr source rxPkOk
attr title "packets received OK, vector(packetBytes)"
vector 377 SolutionNetwork.switch14.eth[0].mac passedUpPk:vector(packetBytes) ETV
attr interpolationmode none
attr source packetSentToUpper
attr title "packets passed to higher layer, vector(packetBytes)"
vector 378 SolutionNetwork.switch15.eth[0].mac rxPkOk:vector(packetBytes) ETV
attr interpolationmode none
attr source rxPkOk
attr title "packets received OK, vector(packetBytes)"
vector 379 SolutionNetwork.switch15.eth[0].mac passedUpPk:vector(packetBytes) ETV
attr interpolationmode none
attr source packetSentToUpper
attr title "packets passed to higher layer, vector(packetBytes)"
vector 380 SolutionNetwork.switch10.eth[4].mac rxPkOk:vector(packetBytes) ETV
attr interpolationmode none
attr source rxPkOk
attr title "packets received OK, vector(packetBytes)"
vector 381 SolutionNetwork.switch10.eth[4].mac passedUpPk:vector(packetBytes) ETV
attr interpolationmode none
attr source packetSentToUpper
attr title "packets passed to higher layer, vector(packetBytes)"
vector 382 SolutionNetwork.ES1.srv packetReceived:vector(packetBytes) ETV
attr interpolationmode none
attr source packetReceived
attr title "packets received, vector(packetBytes)"
vector 383 SolutionNetwork.ES1.srv packetSent:vector(packetBytes) ETV
attr interpolationmode none
attr source packetSent
attr title "packets sent, vector(packetBytes)"
vector 384 SolutionNetwork.switch10.eth[0].mac packetReceivedFromUpper:vector(packetBytes) ETV
attr interpolationmode none
attr source packetReceivedFromUpper
attr title "packet bytes from higher layer, vector(packetBytes)"
vector 385 SolutionNetwork.switch10.eth[0].mac.queue packetPushed:vector(packetBytes) ETV
attr interpolationmode none
attr title "packet pushed, vector(packetBytes)"
vector 386 SolutionNetwork.switch10.eth[0].mac.queue queueLength:vector ETV
attr interpolationmode sample-hold
attr source "count(packetPushed) - count(packetPopped) - count(packetRemoved) - count(packetDropped)"
attr title "queue length, vector"
vector 387 SolutionNetwork.switch10.eth[0].mac.queue packetPopped:vector(packetBytes) ETV
attr interpolationmode none
attr title "packet popped, vector(packetBytes)"
vector 388 SolutionNetwork.switch10.eth[0].mac.queue queueingTime:vector ETV
attr interpolationmode none
attr source queueingTime(packetPopped)
attr title "queueing times, vector"
attr unit s
vector 389 SolutionNetwork.ES4.srv packetReceived:vector(packetBytes) ETV
attr interpolationmode none
attr source packetReceived
attr title "packets received, vector(packetBytes)"
vector 390 SolutionNetwork.ES4.srv packetSent:vector(packetBytes) ETV
[...]
279	389194863 1799 13489555 13554869 89.381853919115 92.458491562228 53 109 109 5777 629693
280	389196662 1693 13489555 13554869 89.381853919115 92.458491562228 53 0 0 0 0
282	389198355 1746 13489751 13554832 89.387142319115 92.456742522228 53 88 88 4664 410432
283	389200101 7707 13489760 13555270 89.387152639115 92.474316442228 227 109 109 24743 2696987
284	389207808 7707 13489760 13555270 89.387152639115 92.474316442228 227 109 109 24743 2696987
285	389215515 14506 13489760 13555270 89.387152639115 92.474316442228 454 0 1 227 227
286	389230021 7707 13489760 13555270 89.387152639115 92.474316442228 227 109 109 24743 2696987
287	389237728 7253 13489760 13555270 89.387152639115 92.474316442228 227 0 0 0 0
288	389244981 7537 13490225 13554690 89.399469119115 92.451464442228 222 109 109 24198 2637582
289	389252518 7537 13490225 13554690 89.399469119115 92.451464442228 222 109 109 24198 2637582
290	389260055 14186 13490225 13554690 89.399469119115 92.451464442228 444 0 1 222 222
291	389274241 7537 13490225 13554690 89.399469119115 92.451464442228 222 109 109 24198 2637582
292	389281778 7093 13490225 13554690 89.399469119115 92.451464442228 222 0 0 0 0
294	389288871 1746 13490027 13554697 89.392430719115 92.451474762228 53 88 88 4664 410432
295	389290617 2003 13490036 13554705 89.392441039115 92.451485082228 59 109 109 6431 700979
296	389292620 2003 13490036 13554705 89.392441039115 92.451485082228 59 109 109 6431 700979
297	389294623 3770 13490036 13554705 89.392441039115 92.451485082228 118 0 1 59 59
298	389298393 2003 13490036 13554705 89.392441039115 92.451485082228 59 109 109 6431 700979
299	389300396 1885 13490036 13554705 89.392441039115 92.451485082228 59 0 0 0 0
300	389302281 1833 13490044 13554713 89.392451359115 92.451495402228 54 109 109 5886 641574
301	389304114 1833 13490044 13554713 89.392451359115 92.451495402228 54 109 109 5886 641574
302	389305947 3450 13490044 13554713 89.392451359115 92.451495402228 108 0 1 54 54
303	389309397 1833 13490044 13554713 89.392451359115 92.451495402228 54 109 109 5886 641574
304	389311230 1725 13490044 13554713 89.392451359115 92.451495402228 54 0 0 0 0
305	389312955 6956 13490051 13555407 89.392461679115 92.479594522228 205 109 109 22345 2435605
306	389319911 6956 13490051 13555407 89.392461679115 92.479594522228 205 109 109 22345 2435605
307	389326867 13092 13490051 13555407 89.392461679115 92.479594522228 410 0 1 205 205
308	389339959 6956 13490051 13555407 89.392461679115 92.479594522228 205 109 109 22345 2435605
309	389346915 6546 13490051 13555407 89.392461679115 92.479594522228 205 0 0 0 0
310	389353461 6922 13490380 13554539 89.401269759115 92.446217322228 204 109 109 22236 2423724
311	389360383 6922 13490380 13554539 89.401269759115 92.446217322228 204 109 109 22236 2423724
312	389367305 13028 13490380 13554539 89.401269759115 92.446217322228 408 0 1 204 204
313	389380333 6922 13490380 13554539 89.401269759115 92.446217322228 204 109 109 22236 2423724
314	389387255 6514 13490380 13554539 89.401269759115 92.446217322228 204 0 0 0 0
315	389393769 99 13490260 13514871 89.399814096505 90.021364743961 3 88 88 264 23232
316	389393868 1812 13490201 13554546 89.397739759115 92.446227642228 55 88 88 4840 425920
317	389395680 2142 13489548 13554988 89.381843599115 92.461999962228 65 88 88 5720 503360
318	389397822 1746 13489752 13554833 89.387142319115 92.456742522228 53 88 88 4664 410432
319	389399568 1746 13490028 13554698 89.392430719115 92.451474762228 53 88 88 4664 410432
320	389401314 1812 13490202 13554547 89.397739759115 92.446227642228 55 88 88 4840 425920
321	389403126 2207 13489549 13554989 89.381843599115 92.461999962228 65 109 109 7085 772265
322	389405333 2207 13489549 13554989 89.381843599115 92.461999962228 65 109 109 7085 772265
323	389407540 4154 13489549 13554989 89.381843599115 92.461999962228 130 0 1 65 65
324	389411694 2207 13489549 13554989 89.381843599115 92.461999962228 65 109 109 7085 772265
325	389413901 2077 13489549 13554989 89.381843599115 92.461999962228 65 0 0 0 0
326	389415978 1799 13489753 13554834 89.387142319115 92.456742522228 53 109 109 5777 629693
327	389417777 1799 13489753 13554834 89.387142319115 92.456742522228 53 109 109 5777 629693
328	389419576 3386 13489753 13554834 89.387142319115 92.456742522228 106 0 1 53 53
329	389422962 1799 13489753 13554834 89.387142319115 92.456742522228 53 109 109 5777 629693
330	389424761 1693 13489753 13554834 89.387142319115 92.456742522228 53 0 0 0 0
331	389426454 1799 13490029 13554699 89.392430719115 92.451474762228 53 109 109 5777 629693
332	389428253 1799 13490029 13554699 89.392430719115 92.451474762228 53 109 109 5777 629693
333	389430052 3386 13490029 13554699 89.392430719115 92.451474762228 106 0 1 53 53
334	389433438 1799 13490029 13554699 89.392430719115 92.451474762228 53 109 109 5777 629693
335	389435237 1693 13490029 13554699 89.392430719115 92.451474762228 53 0 0 0 0
336	389436930 1867 13490203 13554548 89.397739759115 92.446227642228 55 109 109 5995 653455
337	389438797 1867 13490203 13554548 89.397739759115 92.446227642228 55 109 109 5995 653455
338	389440664 3514 13490203 13554548 89.397739759115 92.446227642228 110 0 1 55 55
339	389444178 1867 13490203 13554548 89.397739759115 92.446227642228 55 109 109 5995 653455
340	389446045 1757 13490203 13554548 89.397739759115 92.446227642228 55 0 0 0 0
341	389447802 7913 13489353 13554860 89.376941456505 92.458481242228 233 109 109 25397 2768273
342	389455715 7913 13489353 13554860 89.376941456505 92.458481242228 233 109 109 25397 2768273
343	389463628 7878 13489560 13555123 89.381864239115 92.469038362228 232 109 109 25288 2756392
344	389471506 7878 13489560 13555123 89.381864239115 92.469038362228 232 109 109 25288 2756392
345	389479384 2207 13490208 13555775 89.397751039115 92.611760642412 65 109 109 7085 772265
346	389481591 2207 13490208 13555775 89.397751039115 92.611760642412 65 109 109 7085 772265
347	389483798 8492 13489355 13554109 89.376941456505 92.399317929991 250 109 109 27250 2970250
348	389492290 8492 13489355 13554109 89.376941456505 92.399317929991 250 109 109 27250 2970250
349	389500782 15984 13489355 13554109 89.376941456505 92.399317929991 500 0 1 250 250
350	389516766 8492 13489355 13554109 89.376941456505 92.399317929991 250 109 109 27250 2970250
351	389525258 7992 13489355 13554109 89.376941456505 92.399317929991 250 0 0 0 0
352	389533250 6920 13490676 13555777 89.40633249584 92.611760642412 204 109 109 22236 2423724
353	389540170 6920 13490676 13555777 89.40633249584 92.611760642412 204 109 109 22236 2423724
354	389547090 13024 13490676 13555777 89.40633249584 92.611760642412 408 0 1 204 204
355	389560114 6920 13490676 13555777 89.40633249584 92.611760642412 204 109 109 22236 2423724
356	389567034 6512 13490676 13555777 89.40633249584 92.611760642412 204 0 0 0 0
357	389573546 1799 13489559 13554872 89.381863279115 92.458500922228 53 109 109 5777 629693
358	389575345 7707 13489764 13555273 89.387161999115 92.474325802228 227 109 109 24743 2696987
359	389583052 2003 13490040 13554709 89.392450399115 92.451494442228 59 109 109 6431 700979
360	389585055 1833 13490047 13554716 89.392460719115 92.451504762228 54 109 109 5886 641574
361	389586888 6956 13490054 13555410 89.392471039115 92.479603882228 205 109 109 22345 2435605
362	389593844 6922 13490382 13554542 89.401279119115 92.446226682228 204 109 109 22236 2423724
363	389600766 2207 13489553 13554992 89.381853919115 92.462010282228 65 109 109 7085 772265
364	389602973 7537 13490228 13554693 89.399478479115 92.451473802228 222 109 109 24198 2637582
365	389610510 1799 13489758 13554837 89.387152639115 92.456752842228 53 109 109 5777 629693
366	389612309 1799 13490034 13554703 89.392441039115 92.451485082228 53 109 109 5777 629693
367	389614108 1867 13490207 13554551 89.397750079115 92.446237962228 55 109 109 5995 653455
368	389615975 8492 13489357 13554111 89.376950816505 92.399327289991 250 109 109 27250 2970250
369	389624467 6920 13490678 13555779 89.40634185584 92.611770002412 204 109 109 22236 2423724
370	389631387 1799 13489615 13554947 89.383613279115 92.460250922228 53 109 109 5777 629693
371	389633186 1799 13489615 13554947 89.383613279115 92.460250922228 53 109 109 5777 629693
372	389634985 7707 13489813 13555287 89.388911999115 92.476075802228 227 109 109 24743 2696987
373	389642692 7707 13489813 13555287 89.388911999115 92.476075802228 227 109 109 24743 2696987
374	389650399 2003 13490082 13554754 89.394200399115 92.453244442228 59 109 109 6431 700979
375	389652402 2003 13490082 13554754 89.394200399115 92.453244442228 59 109 109 6431 700979
376	389654405 1833 13490091 13554763 89.394210719115 92.453254762228 54 109 109 5886 641574
377	389656238 1833 13490091 13554763 89.394210719115 92.453254762228 54 109 109 5886 641574
378	389658071 6956 13490099 13555456 89.394221039115 92.481353882228 205 109 109 22345 2435605
379	389665027 6956 13490099 13555456 89.394221039115 92.481353882228 205 109 109 22345 2435605
380	389671983 6922 13490468 13554594 89.403029119115 92.447976682228 204 109 109 22236 2423724
381	389678905 6922 13490468 13554594 89.403029119115 92.447976682228 204 109 109 22236 2423724
383	389685827 1746 13489618 13554950 89.383613279115 92.460250922228 53 88 88 4664 410432
389	389687573 198 13492333 13515974 89.429389519115 90.052927027889 6 88 88 528 46464
390	389687771 1812 13490085 13554757 89.394200399115 92.453244442228 55 88 88 4840 425920
391	389689583 1833 13490094 13554766 89.394210719115 92.453254762228 54 109 109 5886 641574
392	389691416 1833 13490094 13554766 89.394210719115 92.453254762228 54 109 109 5886 641574
393	389693249 3450 13490094 13554766 89.394210719115 92.453254762228 108 0 1 54 54
394	389696699 1833 13490094 13554766 89.394210719115 92.453254762228 54 109 109 5886 641574
395	389698532 1725 13490094 13554766 89.394210719115 92.453254762228 54 0 0 0 0
396	389700257 1746 13489619 13554951 89.383613279115 92.460250922228 53 88 88 4664 410432
397	389702003 1812 13490086 13554758 89.394200399115 92.453244442228 55 88 88 4840 425920
398	389703815 1799 13489620 13554952 89.383613279115 92.460250922228 53 109 109 5777 629693
399	389705614 1799 13489620 13554952 89.383613279115 92.460250922228 53 109 109 5777 629693
400	389707413 3386 13489620 13554952 89.383613279115 92.460250922228 106 0 1 53 53
401	389710799 1799 13489620 13554952 89.383613279115 92.460250922228 53 109 109 5777 629693
402	389712598 1693 13489620 13554952 89.383613279115 92.460250922228 53 0 0 0 0
403	389714291 1867 13490087 13554759 89.394200399115 92.453244442228 55 109 109 5995 653455
404	389716158 1867 13490087 13554759 89.394200399115 92.453244442228 55 109 109 5995 653455
405	389718025 3514 13490087 13554759 89.394200399115 92.453244442228 110 0 1 55 55
406	389721539 1867 13490087 13554759 89.394200399115 92.453244442228 55 109 109 5995 653455
407	389723406 1757 13490087 13554759 89.394200399115 92.453244442228 55 0 0 0 0
408	389725163 2207 13489611 13555027 89.383603919115 92.463760282228 65 109 109 7085 772265
409	389727370 2207 13489611 13555027 89.383603919115 92.463760282228 65 109 109 7085 772265
410	389729577 7537 13490350 13554741 89.401228479115 92.453223802228 222 109 109 24198 2637582
411	389737114 7537 13490350 13554741 89.401228479115 92.453223802228 222 109 109 24198 2637582
412	389744651 1799 13489808 13554874 89.388902639115 92.458502842228 53 109 109 5777 629693
413	389746450 1799 13489808 13554874 89.388902639115 92.458502842228 53 109 109 5777 629693
414	389748249 1799 13490077 13554750 89.394191039115 92.453235082228 53 109 109 5777 629693
415	389750048 1799 13490077 13554750 89.394191039115 92.453235082228 53 109 109 5777 629693
416	389751847 1867 13490243 13554602 89.399500079115 92.447987962228 55 109 109 5995 653455
417	389753714 1867 13490243 13554602 89.399500079115 92.447987962228 55 109 109 5995 653455
418	389755581 8526 13489260 13554114 89.375192416505 92.401077289991 251 109 109 27359 2982131
419	389764107 8526 13489260 13554114 89.375192416505 92.401077289991 251 109 109 27359 2982131
420	389772633 6920 13490764 13555782 89.40809185584 92.613520002412 204 109 109 22236 2423724
421	389779553 6920 13490764 13555782 89.40809185584 92.613520002412 204 109 109 22236 2423724
422	389786473 2207 13489613 13555029 89.383603919115 92.463760282228 65 109 109 7085 772265
423	389788680 2207 13489613 13555029 89.383603919115 92.463760282228 65 109 109 7085 772265
424	389790887 4154 13489613 13555029 89.383603919115 92.463760282228 130 0 1 65 65
425	389795041 2207 13489613 13555029 89.383603919115 92.463760282228 65 109 109 7085 772265
426	389797248 2077 13489613 13555029 89.383603919115 92.463760282228 65 0 0 0 0
427	389799325 1799 13489811 13554876 89.388902639115 92.458502842228 53 109 109 5777 629693
428	389801124 1799 13489811 13554876 89.388902639115 92.458502842228 53 109 109 5777 629693
429	389802923 3386 13489811 13554876 89.388902639115 92.458502842228 106 0 1 53 53
430	389806309 1799 13489811 13554876 89.388902639115 92.458502842228 53 109 109 5777 629693
431	389808108 1693 13489811 13554876 89.388902639115 92.458502842228 53 0 0 0 0
432	389809801 1799 13490080 13554752 89.394191039115 92.453235082228 53 109 109 5777 629693
433	389811600 1799 13490080 13554752 89.394191039115 92.453235082228 53 109 109 5777 629693
434	389813399 3386 13490080 13554752 89.394191039115 92.453235082228 106 0 1 53 53
435	389816785 1799 13490080 13554752 89.394191039115 92.453235082228 53 109 109 5777 629693
436	389818584 1693 13490080 13554752 89.394191039115 92.453235082228 53 0 0 0 0
437	389820277 1867 13490246 13554604 89.399500079115 92.447987962228 55 109 109 5995 653455
438	389822144 1867 13490246 13554604 89.399500079115 92.447987962228 55 109 109 5995 653455
439	389824011 3514 13490246 13554604 89.399500079115 92.447987962228 110 0 1 55 55
440	389827525 1867 13490246 13554604 89.399500079115 92.447987962228 55 109 109 5995 653455
441	389829392 1757 13490246 13554604 89.399500079115 92.447987962228 55 0 0 0 0
443	389831149 1833 13490098 13554769 89.394220079115 92.453264122228 54 109 109 5886 641574
444	389832982 1799 13489625 13554955 89.383623599115 92.460261242228 53 109 109 5777 629693
445	389834781 1867 13490092 13554764 89.394210719115 92.453254762228 55 109 109 5995 653455
446	389836648 1799 13489814 13554879 89.388911999115 92.458512202228 53 109 109 5777 629693
447	389838447 1799 13490083 13554755 89.394200399115 92.453244442228 53 109 109 5777 629693
448	389840246 1867 13490249 13554607 89.399509439115 92.447997322228 55 109 109 5995 653455
449	389842113 2207 13489616 13555032 89.383613279115 92.463769642228 65 109 109 7085 772265
452	389844320 1833 13490140 13554805 89.395970079115 92.455014122228 54 109 109 5886 641574
453	389846153 1833 13490140 13554805 89.395970079115 92.455014122228 54 109 109 5886 641574
454	389847986 33 13508453 13508453 89.862474083241 89.862474083241 1 88 88 88 7744
455	389848019 1779 13490143 13554808 89.395970079115 92.455014122228 54 88 88 4752 418176
456	389849798 1779 13490144 13554809 89.395970079115 92.455014122228 54 88 88 4752 418176
457	389851577 1833 13490145 13554810 89.395970079115 92.455014122228 54 109 109 5886 641574
458	389853410 1833 13490145 13554810 89.395970079115 92.455014122228 54 109 109 5886 641574
459	389855243 3450 13490145 13554810 89.395970079115 92.455014122228 108 0 1 54 54
460	389858693 1833 13490145 13554810 89.395970079115 92.455014122228 54 109 109 5886 641574
461	389860526 1725 13490145 13554810 89.395970079115 92.455014122228 54 0 0 0 0
462	389862251 1799 13489682 13554993 89.385373599115 92.462011242228 53 109 109 5777 629693
463	389864050 1799 13489682 13554993 89.385373599115 92.462011242228 53 109 109 5777 629693
464	389865849 1867 13490135 13554800 89.395960719115 92.455004762228 55 109 109 5995 653455
465	389867716 1867 13490135 13554800 89.395960719115 92.455004762228 55 109 109 5995 653455
466	389869583 1799 13489971 13554956 89.390661999115 92.460262202228 53 109 109 5777 629693
467	389871382 1799 13489971 13554956 89.390661999115 92.460262202228 53 109 109 5777 629693
468	389873181 1799 13490127 13554793 89.395950399115 92.454994442228 53 109 109 5777 629693
469	389874980 1799 13490127 13554793 89.395950399115 92.454994442228 53 109 109 5777 629693
470	389876779 1867 13490370 13554660 89.401259439115 92.449747322228 55 109 109 5995 653455
471	389878646 1867 13490370 13554660 89.401259439115 92.449747322228 55 109 109 5995 653455
472	389880513 1799 13489685 13554996 89.385373599115 92.462011242228 53 109 109 5777 629693
473	389882312 1799 13489685 13554996 89.385373599115 92.462011242228 53 109 109 5777 629693
474	389884111 3386 13489685 13554996 89.385373599115 92.462011242228 106 0 1 53 53
475	389887497 1799 13489685 13554996 89.385373599115 92.462011242228 53 109 109 5777 629693
476	389889296 1693 13489685 13554996 89.385373599115 92.462011242228 53 0 0 0 0
477	389890989 3700 13490138 13554897 89.395960719115 92.458533802228 109 109 109 11881 1295029
478	389894689 3700 13490138 13554897 89.395960719115 92.458533802228 109 109 109 11881 1295029
479	389898389 6964 13490138 13554897 89.395960719115 92.458533802228 218 0 1 109 109
480	389905353 3700 13490138 13554897 89.395960719115 92.458533802228 109 109 109 11881 1295029
481	389909053 3482 13490138 13554897 89.395960719115 92.458533802228 109 0 0 0 0
482	389912535 2207 13489675 13555062 89.385363279115 92.465519642228 65 109 109 7085 772265
483	389914742 2207 13489675 13555062 89.385363279115 92.465519642228 65 109 109 7085 772265
484	389916949 1833 13490150 13554813 89.395980399115 92.455024442228 54 109 109 5886 641574
485	389918782 1799 13489688 13554999 89.385382959115 92.462020602228 53 109 109 5777 629693
486	389920581 3700 13490141 13554899 89.395970079115 92.458543162228 109 109 109 11881 1295029
487	389924281 1833 13490193 13554852 89.397730399115 92.456774442228 54 109 109 5886 641574
488	389926114 1833 13490193 13554852 89.397730399115 92.456774442228 54 109 109 5886 641574
489	389927947 1799 13489744 13555033 89.387132959115 92.463770602228 53 109 109 5777 629693
490	389929746 1799 13489744 13555033 89.387132959115 92.463770602228 53 109 109 5777 629693
491	389931545 3700 13490185 13554977 89.397720079115 92.460293162228 109 109 109 11881 1295029
492	389935245 3700 13490185 13554977 89.397720079115 92.460293162228 109 109 109 11881 1295029
493	389938945 1833 13490196 13554855 89.397730399115 92.456774442228 54 109 109 5886 641574
494	389940778 1833 13490196 13554855 89.397730399115 92.456774442228 54 109 109 5886 641574
495	389942611 3450 13490196 13554855 89.397730399115 92.456774442228 108 0 1 54 54
496	389946061 1833 13490196 13554855 89.397730399115 92.456774442228 54 109 109 5886 641574
497	389947894 1725 13490196 13554855 89.397730399115 92.456774442228 54 0 0 0 0
498	389949619 3700 13490188 13554980 89.397720079115 92.460293162228 109 109 109 11881 1295029
499	389953319 3700 13490188 13554980 89.397720079115 92.460293162228 109 109 109 11881 1295029
500	389957019 6964 13490188 13554980 89.397720079115 92.460293162228 218 0 1 109 109
501	389963983 3700 13490188 13554980 89.397720079115 92.460293162228 109 109 109 11881 1295029
502	389967683 3482 13490188 13554980 89.397720079115 92.460293162228 109 0 0 0 0
503	389971165 1833 13490199 13554857 89.397739759115 92.456783802228 54 109 109 5886 641574
504	389972998 3700 13490191 13554982 89.397729439115 92.460302522228 109 109 109 11881 1295029
505	389976698 1833 13490236 13554894 89.399489759115 92.458533802228 54 109 109 5886 641574
506	389978531 1833 13490236 13554894 89.399489759115 92.458533802228 54 109 109 5886 641574
507	389980364 3700 13490229 13555019 89.399479439115 92.462052522228 109 109 109 11881 1295029
508	389984064 3700 13490229 13555019 89.399479439115 92.462052522228 109 109 109 11881 1295029

